<routes>
    <vType id="Naive_passenger_vehicles" accel="2.6" decel="4.5" Sigma="0.5" length="5" minGap="2.5" speedFactor="1" color="yellow" vClass="passenger" guiShape="passenger" />
    <vType id="passenger_vehicles_in_a_rush" accel="3.6" decel="5" Sigma="1" length="5" minGap="2" speedFactor="1.1" color="red" vClass="passenger" guiShape="passenger" />
    <vType id="Emergency_vehicles" accel="3.6" decel="5" Sigma="1" length="6.5" minGap="1.5" speedFactor="1.5" color="red" vClass="passenger" guiShape="emergency" />

    <flow id="f0" type="Naive_passenger_vehicles" beg="0" end="3600" number="400" from="E1" to="E35" departPos="random" arrivalPos="random"/>
    <flow id="f1" type="Naive_passenger_vehicles" beg="0" end="3600" number="300" from="E17" to="E8" departPos="random" arrivalPos="random"/>
    <flow id="f2" type="Naive_passenger_vehicles" beg="0" end="3600" number="200" from="E10" to="E1" departPos="random" arrivalPos="random"/>
    
    <route id="route0" edges="E1 E2 E3 -E13 -E12 -E23"/>

    <vehicle id="EV0_0" type="Emergency_vehicles" route="route0" depart="300"/>
    <vehicle id="EV0_1" type="Emergency_vehicles" route="route0" depart="600"/>
    <vehicle id="EV0_2" type="Emergency_vehicles" route="route0" depart="900"/>
    <vehicle id="EV0_3" type="Emergency_vehicles" route="route0" depart="2400"/>
</routes>
