<?xml version="1.0" encoding="UTF-8"?>

<!-- generated on 2024-11-20 01:07:53 by Eclipse SUMO netedit Version 1.21.0
<neteditConfiguration xmlns:xsi="http://www.w3.org/2001/XMLSchema-instance" xsi:noNamespaceSchemaLocation="http://sumo.dlr.de/xsd/neteditConfiguration.xsd">

    <input>
        <sumo-net-file value="D:\All Python\Pure-Python\P4\03-Advanced transportation\SUMO\Project\Project_KeivanJamali.net.xml"/>
    </input>

    <output>
        <output-file value="D:\All Python\Pure-Python\P4\03-Advanced transportation\SUMO\Project\Project_KeivanJamali.net.xml"/>
    </output>

    <processing>
        <offset.disable-normalization value="true"/>
    </processing>

    <junctions>
        <no-turnarounds value="true"/>
    </junctions>

    <netedit>
        <new-network value="false"/>
    </netedit>

</neteditConfiguration>
-->

<net version="1.20" junctionCornerDetail="5" limitTurnSpeed="5.50" xmlns:xsi="http://www.w3.org/2001/XMLSchema-instance" xsi:noNamespaceSchemaLocation="http://sumo.dlr.de/xsd/net_file.xsd">

    <location netOffset="0.00,0.00" convBoundary="-2000.00,-2100.00,100.00,600.00" origBoundary="10000000000.00,10000000000.00,-10000000000.00,-10000000000.00" projParameter="!"/>

    <edge id=":J0_0" function="internal">
        <lane id=":J0_0_0" index="0" speed="8.96" length="18.06" shape="-1993.60,604.80 -1998.50,604.10 -2002.00,602.00 -2004.10,598.50 -2004.80,593.60"/>
        <lane id=":J0_0_1" index="1" speed="7.66" length="12.90" shape="-1993.60,601.60 -1997.10,601.10 -1999.60,599.60 -2001.10,597.10 -2001.60,593.60"/>
    </edge>
    <edge id=":J0_2" function="internal">
        <lane id=":J0_2_0" index="0" speed="3.90" length="2.58" shape="-1995.20,593.60 -1995.10,594.30 -1994.80,594.80 -1994.30,595.10 -1993.60,595.20"/>
        <lane id=":J0_2_1" index="1" speed="6.08" length="7.74" shape="-1998.40,593.60 -1998.10,595.70 -1997.20,597.20 -1995.70,598.10 -1993.60,598.40"/>
    </edge>
    <edge id=":J1_0" function="internal">
        <lane id=":J1_0_0" index="0" speed="8.96" length="18.06" shape="-495.20,593.60 -495.90,598.50 -498.00,602.00 -501.50,604.10 -506.40,604.80"/>
        <lane id=":J1_0_1" index="1" speed="7.66" length="12.90" shape="-498.40,593.60 -498.90,597.10 -500.40,599.60 -502.90,601.10 -506.40,601.60"/>
    </edge>
    <edge id=":J1_2" function="internal">
        <lane id=":J1_2_0" index="0" speed="3.90" length="2.58" shape="-506.40,595.20 -505.70,595.10 -505.20,594.80 -504.90,594.30 -504.80,593.60"/>
        <lane id=":J1_2_1" index="1" speed="6.08" length="7.74" shape="-506.40,598.40 -504.30,598.10 -502.80,597.20 -501.90,595.70 -501.60,593.60"/>
    </edge>
    <edge id=":J10_0" function="internal">
        <lane id=":J10_0_0" index="0" speed="16.67" length="20.80" shape="-1104.80,10.40 -1104.80,-10.40"/>
        <lane id=":J10_0_1" index="1" speed="16.67" length="20.80" shape="-1101.60,10.40 -1101.60,-10.40"/>
    </edge>
    <edge id=":J10_2" function="internal">
        <lane id=":J10_2_0" index="0" speed="9.26" length="5.01" shape="-1101.60,10.40 -1100.89,5.44"/>
    </edge>
    <edge id=":J10_8" function="internal">
        <lane id=":J10_8_0" index="0" speed="9.26" length="14.34" shape="-1100.89,5.44 -1100.85,5.15 -1098.60,1.40 -1094.85,-0.85 -1089.60,-1.60"/>
    </edge>
    <edge id=":J10_3" function="internal">
        <lane id=":J10_3_0" index="0" speed="6.51" length="9.03" shape="-1089.60,4.80 -1092.05,5.15 -1093.80,6.20 -1094.85,7.95 -1095.20,10.40"/>
    </edge>
    <edge id=":J10_4" function="internal">
        <lane id=":J10_4_0" index="0" speed="9.26" length="19.35" shape="-1089.60,1.60 -1094.85,0.85 -1098.60,-1.40 -1100.85,-5.15 -1101.60,-10.40"/>
    </edge>
    <edge id=":J10_5" function="internal">
        <lane id=":J10_5_0" index="0" speed="6.51" length="9.03" shape="-1095.20,-10.40 -1094.85,-7.95 -1093.80,-6.20 -1092.05,-5.15 -1089.60,-4.80"/>
    </edge>
    <edge id=":J10_6" function="internal">
        <lane id=":J10_6_0" index="0" speed="16.67" length="20.80" shape="-1095.20,-10.40 -1095.20,10.40"/>
        <lane id=":J10_6_1" index="1" speed="16.67" length="20.80" shape="-1098.40,-10.40 -1098.40,10.40"/>
    </edge>
    <edge id=":J11_0" function="internal">
        <lane id=":J11_0_0" index="0" speed="6.51" length="9.03" shape="-504.80,10.40 -505.15,7.95 -506.20,6.20 -507.95,5.15 -510.40,4.80"/>
    </edge>
    <edge id=":J11_1" function="internal">
        <lane id=":J11_1_0" index="0" speed="16.67" length="20.80" shape="-504.80,10.40 -504.80,-10.40"/>
        <lane id=":J11_1_1" index="1" speed="16.67" length="20.80" shape="-501.60,10.40 -501.60,-10.40"/>
    </edge>
    <edge id=":J11_3" function="internal">
        <lane id=":J11_3_0" index="0" speed="9.26" length="5.01" shape="-501.60,10.40 -500.89,5.44"/>
    </edge>
    <edge id=":J11_16" function="internal">
        <lane id=":J11_16_0" index="0" speed="9.26" length="14.34" shape="-500.89,5.44 -500.85,5.15 -498.60,1.40 -494.85,-0.85 -489.60,-1.60"/>
    </edge>
    <edge id=":J11_4" function="internal">
        <lane id=":J11_4_0" index="0" speed="6.51" length="9.03" shape="-489.60,4.80 -492.05,5.15 -493.80,6.20 -494.85,7.95 -495.20,10.40"/>
    </edge>
    <edge id=":J11_5" function="internal">
        <lane id=":J11_5_0" index="0" speed="16.67" length="20.80" shape="-489.60,4.80 -510.40,4.80"/>
        <lane id=":J11_5_1" index="1" speed="16.67" length="20.80" shape="-489.60,1.60 -510.40,1.60"/>
    </edge>
    <edge id=":J11_7" function="internal">
        <lane id=":J11_7_0" index="0" speed="9.26" length="19.35" shape="-489.60,1.60 -494.85,0.85 -498.60,-1.40 -500.85,-5.15 -501.60,-10.40"/>
    </edge>
    <edge id=":J11_8" function="internal">
        <lane id=":J11_8_0" index="0" speed="6.51" length="9.03" shape="-495.20,-10.40 -494.85,-7.95 -493.80,-6.20 -492.05,-5.15 -489.60,-4.80"/>
    </edge>
    <edge id=":J11_9" function="internal">
        <lane id=":J11_9_0" index="0" speed="16.67" length="20.80" shape="-495.20,-10.40 -495.20,10.40"/>
        <lane id=":J11_9_1" index="1" speed="16.67" length="20.80" shape="-498.40,-10.40 -498.40,10.40"/>
    </edge>
    <edge id=":J11_11" function="internal">
        <lane id=":J11_11_0" index="0" speed="9.26" length="5.01" shape="-498.40,-10.40 -499.11,-5.44"/>
    </edge>
    <edge id=":J11_17" function="internal">
        <lane id=":J11_17_0" index="0" speed="9.26" length="14.34" shape="-499.11,-5.44 -499.15,-5.15 -501.40,-1.40 -505.15,0.85 -510.40,1.60"/>
    </edge>
    <edge id=":J11_12" function="internal">
        <lane id=":J11_12_0" index="0" speed="6.51" length="9.03" shape="-510.40,-4.80 -507.95,-5.15 -506.20,-6.20 -505.15,-7.95 -504.80,-10.40"/>
    </edge>
    <edge id=":J11_13" function="internal">
        <lane id=":J11_13_0" index="0" speed="16.67" length="20.80" shape="-510.40,-4.80 -489.60,-4.80"/>
        <lane id=":J11_13_1" index="1" speed="16.67" length="20.80" shape="-510.40,-1.60 -489.60,-1.60"/>
    </edge>
    <edge id=":J11_15" function="internal">
        <lane id=":J11_15_0" index="0" speed="9.26" length="19.35" shape="-510.40,-1.60 -505.15,-0.85 -501.40,1.40 -499.15,5.15 -498.40,10.40"/>
    </edge>
    <edge id=":J12_0" function="internal">
        <lane id=":J12_0_0" index="0" speed="8.96" length="18.06" shape="104.80,-6.40 104.10,-1.50 102.00,2.00 98.50,4.10 93.60,4.80"/>
        <lane id=":J12_0_1" index="1" speed="7.66" length="12.90" shape="101.60,-6.40 101.10,-2.90 99.60,-0.40 97.10,1.10 93.60,1.60"/>
    </edge>
    <edge id=":J12_2" function="internal">
        <lane id=":J12_2_0" index="0" speed="3.90" length="2.58" shape="93.60,-4.80 94.30,-4.90 94.80,-5.20 95.10,-5.70 95.20,-6.40"/>
        <lane id=":J12_2_1" index="1" speed="6.08" length="7.74" shape="93.60,-1.60 95.70,-1.90 97.20,-2.80 98.10,-4.30 98.40,-6.40"/>
    </edge>
    <edge id=":J13_0" function="internal">
        <lane id=":J13_0_0" index="0" speed="7.14" length="11.10" shape="95.20,-289.60 94.70,-292.05 93.18,-293.80 90.66,-294.85 87.12,-295.20"/>
    </edge>
    <edge id=":J13_1" function="internal">
        <lane id=":J13_1_0" index="0" speed="16.67" length="22.11" shape="95.20,-289.60 95.05,-295.78 94.47,-300.34 93.31,-304.81 91.37,-310.70"/>
        <lane id=":J13_1_1" index="1" speed="16.67" length="22.11" shape="98.40,-289.60 98.22,-295.94 97.59,-300.85 96.37,-305.66 94.41,-311.71"/>
    </edge>
    <edge id=":J13_3" function="internal">
        <lane id=":J13_3_0" index="0" speed="16.67" length="24.15" shape="100.48,-313.74 102.49,-307.37 103.83,-301.86 104.57,-296.26 104.80,-289.60"/>
        <lane id=":J13_3_1" index="1" speed="16.67" length="24.15" shape="97.45,-312.72 99.43,-306.52 100.71,-301.35 101.40,-296.10 101.60,-289.60"/>
    </edge>
    <edge id=":J13_5" function="internal">
        <lane id=":J13_5_0" index="0" speed="8.88" length="5.37" shape="97.45,-312.72 98.41,-307.44"/>
    </edge>
    <edge id=":J13_8" function="internal">
        <lane id=":J13_8_0" index="0" speed="8.88" length="16.71" shape="98.41,-307.44 98.59,-306.46 97.25,-301.98 93.43,-299.30 87.12,-298.40"/>
    </edge>
    <edge id=":J13_6" function="internal">
        <lane id=":J13_6_0" index="0" speed="5.92" length="9.10" shape="87.12,-304.80 89.72,-305.17 91.29,-306.28 91.85,-308.12 91.37,-310.70"/>
    </edge>
    <edge id=":J13_7" function="internal">
        <lane id=":J13_7_0" index="0" speed="9.71" length="21.39" shape="87.12,-301.60 93.46,-300.85 97.98,-298.60 100.70,-294.85 101.60,-289.60"/>
    </edge>
    <edge id=":J14_0" function="internal">
        <lane id=":J14_0_0" index="0" speed="8.96" length="18.06" shape="-2004.80,-2093.60 -2004.10,-2098.50 -2002.00,-2102.00 -1998.50,-2104.10 -1993.60,-2104.80"/>
        <lane id=":J14_0_1" index="1" speed="7.66" length="12.90" shape="-2001.60,-2093.60 -2001.10,-2097.10 -1999.60,-2099.60 -1997.10,-2101.10 -1993.60,-2101.60"/>
    </edge>
    <edge id=":J14_2" function="internal">
        <lane id=":J14_2_0" index="0" speed="3.90" length="2.58" shape="-1993.60,-2095.20 -1994.30,-2095.10 -1994.80,-2094.80 -1995.10,-2094.30 -1995.20,-2093.60"/>
        <lane id=":J14_2_1" index="1" speed="6.08" length="7.74" shape="-1993.60,-2098.40 -1995.70,-2098.10 -1997.20,-2097.20 -1998.10,-2095.70 -1998.40,-2093.60"/>
    </edge>
    <edge id=":J15_0" function="internal">
        <lane id=":J15_0_0" index="0" speed="16.67" length="20.80" shape="-1704.80,-1189.60 -1704.80,-1210.40"/>
        <lane id=":J15_0_1" index="1" speed="16.67" length="20.80" shape="-1701.60,-1189.60 -1701.60,-1210.40"/>
    </edge>
    <edge id=":J15_2" function="internal">
        <lane id=":J15_2_0" index="0" speed="9.26" length="5.01" shape="-1701.60,-1189.60 -1700.89,-1194.56"/>
    </edge>
    <edge id=":J15_8" function="internal">
        <lane id=":J15_8_0" index="0" speed="9.26" length="14.34" shape="-1700.89,-1194.56 -1700.85,-1194.85 -1698.60,-1198.60 -1694.85,-1200.85 -1689.60,-1201.60"/>
    </edge>
    <edge id=":J15_3" function="internal">
        <lane id=":J15_3_0" index="0" speed="6.51" length="9.03" shape="-1689.60,-1195.20 -1692.05,-1194.85 -1693.80,-1193.80 -1694.85,-1192.05 -1695.20,-1189.60"/>
    </edge>
    <edge id=":J15_4" function="internal">
        <lane id=":J15_4_0" index="0" speed="9.26" length="19.35" shape="-1689.60,-1198.40 -1694.85,-1199.15 -1698.60,-1201.40 -1700.85,-1205.15 -1701.60,-1210.40"/>
    </edge>
    <edge id=":J15_5" function="internal">
        <lane id=":J15_5_0" index="0" speed="6.51" length="9.03" shape="-1695.20,-1210.40 -1694.85,-1207.95 -1693.80,-1206.20 -1692.05,-1205.15 -1689.60,-1204.80"/>
    </edge>
    <edge id=":J15_6" function="internal">
        <lane id=":J15_6_0" index="0" speed="16.67" length="20.80" shape="-1695.20,-1210.40 -1695.20,-1189.60"/>
        <lane id=":J15_6_1" index="1" speed="16.67" length="20.80" shape="-1698.40,-1210.40 -1698.40,-1189.60"/>
    </edge>
    <edge id=":J16_0" function="internal">
        <lane id=":J16_0_0" index="0" speed="6.51" length="9.03" shape="-1104.80,-1189.60 -1105.15,-1192.05 -1106.20,-1193.80 -1107.95,-1194.85 -1110.40,-1195.20"/>
    </edge>
    <edge id=":J16_1" function="internal">
        <lane id=":J16_1_0" index="0" speed="16.67" length="20.80" shape="-1104.80,-1189.60 -1104.80,-1210.40"/>
        <lane id=":J16_1_1" index="1" speed="16.67" length="20.80" shape="-1101.60,-1189.60 -1101.60,-1210.40"/>
    </edge>
    <edge id=":J16_3" function="internal">
        <lane id=":J16_3_0" index="0" speed="9.26" length="5.01" shape="-1101.60,-1189.60 -1100.89,-1194.56"/>
    </edge>
    <edge id=":J16_16" function="internal">
        <lane id=":J16_16_0" index="0" speed="9.26" length="14.34" shape="-1100.89,-1194.56 -1100.85,-1194.85 -1098.60,-1198.60 -1094.85,-1200.85 -1089.60,-1201.60"/>
    </edge>
    <edge id=":J16_4" function="internal">
        <lane id=":J16_4_0" index="0" speed="6.51" length="9.03" shape="-1089.60,-1195.20 -1092.05,-1194.85 -1093.80,-1193.80 -1094.85,-1192.05 -1095.20,-1189.60"/>
    </edge>
    <edge id=":J16_5" function="internal">
        <lane id=":J16_5_0" index="0" speed="16.67" length="20.80" shape="-1089.60,-1195.20 -1110.40,-1195.20"/>
        <lane id=":J16_5_1" index="1" speed="16.67" length="20.80" shape="-1089.60,-1198.40 -1110.40,-1198.40"/>
    </edge>
    <edge id=":J16_7" function="internal">
        <lane id=":J16_7_0" index="0" speed="9.26" length="19.35" shape="-1089.60,-1198.40 -1094.85,-1199.15 -1098.60,-1201.40 -1100.85,-1205.15 -1101.60,-1210.40"/>
    </edge>
    <edge id=":J16_8" function="internal">
        <lane id=":J16_8_0" index="0" speed="6.51" length="9.03" shape="-1095.20,-1210.40 -1094.85,-1207.95 -1093.80,-1206.20 -1092.05,-1205.15 -1089.60,-1204.80"/>
    </edge>
    <edge id=":J16_9" function="internal">
        <lane id=":J16_9_0" index="0" speed="16.67" length="20.80" shape="-1095.20,-1210.40 -1095.20,-1189.60"/>
        <lane id=":J16_9_1" index="1" speed="16.67" length="20.80" shape="-1098.40,-1210.40 -1098.40,-1189.60"/>
    </edge>
    <edge id=":J16_11" function="internal">
        <lane id=":J16_11_0" index="0" speed="9.26" length="5.01" shape="-1098.40,-1210.40 -1099.11,-1205.44"/>
    </edge>
    <edge id=":J16_17" function="internal">
        <lane id=":J16_17_0" index="0" speed="9.26" length="14.34" shape="-1099.11,-1205.44 -1099.15,-1205.15 -1101.40,-1201.40 -1105.15,-1199.15 -1110.40,-1198.40"/>
    </edge>
    <edge id=":J16_12" function="internal">
        <lane id=":J16_12_0" index="0" speed="6.51" length="9.03" shape="-1110.40,-1204.80 -1107.95,-1205.15 -1106.20,-1206.20 -1105.15,-1207.95 -1104.80,-1210.40"/>
    </edge>
    <edge id=":J16_13" function="internal">
        <lane id=":J16_13_0" index="0" speed="16.67" length="20.80" shape="-1110.40,-1204.80 -1089.60,-1204.80"/>
        <lane id=":J16_13_1" index="1" speed="16.67" length="20.80" shape="-1110.40,-1201.60 -1089.60,-1201.60"/>
    </edge>
    <edge id=":J16_15" function="internal">
        <lane id=":J16_15_0" index="0" speed="9.26" length="19.35" shape="-1110.40,-1201.60 -1105.15,-1200.85 -1101.40,-1198.60 -1099.15,-1194.85 -1098.40,-1189.60"/>
    </edge>
    <edge id=":J17_0" function="internal">
        <lane id=":J17_0_0" index="0" speed="5.52" length="9.50" shape="-504.80,-782.34 -505.16,-785.28 -506.22,-786.71 -508.00,-786.62 -510.50,-785.00"/>
    </edge>
    <edge id=":J17_1" function="internal">
        <lane id=":J17_1_0" index="0" speed="16.67" length="24.66" shape="-504.80,-782.34 -504.80,-807.00"/>
        <lane id=":J17_1_1" index="1" speed="16.67" length="24.66" shape="-501.60,-782.34 -501.60,-807.00"/>
    </edge>
    <edge id=":J17_3" function="internal">
        <lane id=":J17_3_0" index="0" speed="16.67" length="24.66" shape="-495.20,-807.00 -495.20,-782.34"/>
        <lane id=":J17_3_1" index="1" speed="16.67" length="24.66" shape="-498.40,-807.00 -498.40,-782.34"/>
    </edge>
    <edge id=":J17_5" function="internal">
        <lane id=":J17_5_0" index="0" speed="15.02" length="3.44" shape="-498.40,-807.00 -499.12,-803.64"/>
    </edge>
    <edge id=":J17_8" function="internal">
        <lane id=":J17_8_0" index="0" speed="15.02" length="21.27" shape="-499.12,-803.64 -499.28,-802.87 -501.94,-798.24 -506.36,-793.10 -512.55,-787.46"/>
    </edge>
    <edge id=":J17_6" function="internal">
        <lane id=":J17_6_0" index="0" speed="13.27" length="19.17" shape="-516.64,-792.38 -511.46,-796.99 -507.76,-800.97 -505.54,-804.30 -504.80,-807.00"/>
    </edge>
    <edge id=":J17_7" function="internal">
        <lane id=":J17_7_0" index="0" speed="8.28" length="23.36" shape="-514.59,-789.92 -508.84,-792.82 -503.64,-792.24 -499.86,-788.61 -498.40,-782.34"/>
    </edge>
    <edge id=":J18_0" function="internal">
        <lane id=":J18_0_0" index="0" speed="6.51" length="9.03" shape="-504.80,-1189.60 -505.15,-1192.05 -506.20,-1193.80 -507.95,-1194.85 -510.40,-1195.20"/>
    </edge>
    <edge id=":J18_1" function="internal">
        <lane id=":J18_1_0" index="0" speed="16.67" length="20.80" shape="-504.80,-1189.60 -504.80,-1210.40"/>
        <lane id=":J18_1_1" index="1" speed="16.67" length="20.80" shape="-501.60,-1189.60 -501.60,-1210.40"/>
    </edge>
    <edge id=":J18_3" function="internal">
        <lane id=":J18_3_0" index="0" speed="16.67" length="20.80" shape="-495.20,-1210.40 -495.20,-1189.60"/>
        <lane id=":J18_3_1" index="1" speed="16.67" length="20.80" shape="-498.40,-1210.40 -498.40,-1189.60"/>
    </edge>
    <edge id=":J18_5" function="internal">
        <lane id=":J18_5_0" index="0" speed="9.26" length="5.01" shape="-498.40,-1210.40 -499.11,-1205.44"/>
    </edge>
    <edge id=":J18_8" function="internal">
        <lane id=":J18_8_0" index="0" speed="9.26" length="14.34" shape="-499.11,-1205.44 -499.15,-1205.15 -501.40,-1201.40 -505.15,-1199.15 -510.40,-1198.40"/>
    </edge>
    <edge id=":J18_6" function="internal">
        <lane id=":J18_6_0" index="0" speed="6.51" length="9.03" shape="-510.40,-1204.80 -507.95,-1205.15 -506.20,-1206.20 -505.15,-1207.95 -504.80,-1210.40"/>
    </edge>
    <edge id=":J18_7" function="internal">
        <lane id=":J18_7_0" index="0" speed="9.26" length="19.35" shape="-510.40,-1201.60 -505.15,-1200.85 -501.40,-1198.60 -499.15,-1194.85 -498.40,-1189.60"/>
    </edge>
    <edge id=":J19_0" function="internal">
        <lane id=":J19_0_0" index="0" speed="16.67" length="20.80" shape="-1704.80,-1489.60 -1704.80,-1510.40"/>
        <lane id=":J19_0_1" index="1" speed="16.67" length="20.80" shape="-1701.60,-1489.60 -1701.60,-1510.40"/>
    </edge>
    <edge id=":J19_2" function="internal">
        <lane id=":J19_2_0" index="0" speed="9.26" length="5.01" shape="-1701.60,-1489.60 -1700.89,-1494.56"/>
    </edge>
    <edge id=":J19_8" function="internal">
        <lane id=":J19_8_0" index="0" speed="9.26" length="14.34" shape="-1700.89,-1494.56 -1700.85,-1494.85 -1698.60,-1498.60 -1694.85,-1500.85 -1689.60,-1501.60"/>
    </edge>
    <edge id=":J19_3" function="internal">
        <lane id=":J19_3_0" index="0" speed="6.51" length="9.03" shape="-1689.60,-1495.20 -1692.05,-1494.85 -1693.80,-1493.80 -1694.85,-1492.05 -1695.20,-1489.60"/>
    </edge>
    <edge id=":J19_4" function="internal">
        <lane id=":J19_4_0" index="0" speed="9.26" length="19.35" shape="-1689.60,-1498.40 -1694.85,-1499.15 -1698.60,-1501.40 -1700.85,-1505.15 -1701.60,-1510.40"/>
    </edge>
    <edge id=":J19_5" function="internal">
        <lane id=":J19_5_0" index="0" speed="6.51" length="9.03" shape="-1695.20,-1510.40 -1694.85,-1507.95 -1693.80,-1506.20 -1692.05,-1505.15 -1689.60,-1504.80"/>
    </edge>
    <edge id=":J19_6" function="internal">
        <lane id=":J19_6_0" index="0" speed="16.67" length="20.80" shape="-1695.20,-1510.40 -1695.20,-1489.60"/>
        <lane id=":J19_6_1" index="1" speed="16.67" length="20.80" shape="-1698.40,-1510.40 -1698.40,-1489.60"/>
    </edge>
    <edge id=":J2_0" function="internal">
        <lane id=":J2_0_0" index="0" speed="16.67" length="20.80" shape="-2004.80,310.40 -2004.80,289.60"/>
        <lane id=":J2_0_1" index="1" speed="16.67" length="20.80" shape="-2001.60,310.40 -2001.60,289.60"/>
    </edge>
    <edge id=":J2_2" function="internal">
        <lane id=":J2_2_0" index="0" speed="9.26" length="5.01" shape="-2001.60,310.40 -2000.89,305.44"/>
    </edge>
    <edge id=":J2_8" function="internal">
        <lane id=":J2_8_0" index="0" speed="9.26" length="14.34" shape="-2000.89,305.44 -2000.85,305.15 -1998.60,301.40 -1994.85,299.15 -1989.60,298.40"/>
    </edge>
    <edge id=":J2_3" function="internal">
        <lane id=":J2_3_0" index="0" speed="6.51" length="9.03" shape="-1989.60,304.80 -1992.05,305.15 -1993.80,306.20 -1994.85,307.95 -1995.20,310.40"/>
    </edge>
    <edge id=":J2_4" function="internal">
        <lane id=":J2_4_0" index="0" speed="9.26" length="19.35" shape="-1989.60,301.60 -1994.85,300.85 -1998.60,298.60 -2000.85,294.85 -2001.60,289.60"/>
    </edge>
    <edge id=":J2_5" function="internal">
        <lane id=":J2_5_0" index="0" speed="6.51" length="9.03" shape="-1995.20,289.60 -1994.85,292.05 -1993.80,293.80 -1992.05,294.85 -1989.60,295.20"/>
    </edge>
    <edge id=":J2_6" function="internal">
        <lane id=":J2_6_0" index="0" speed="16.67" length="20.80" shape="-1995.20,289.60 -1995.20,310.40"/>
        <lane id=":J2_6_1" index="1" speed="16.67" length="20.80" shape="-1998.40,289.60 -1998.40,310.40"/>
    </edge>
    <edge id=":J20_0" function="internal">
        <lane id=":J20_0_0" index="0" speed="6.51" length="9.03" shape="-1704.80,-2089.60 -1705.15,-2092.05 -1706.20,-2093.80 -1707.95,-2094.85 -1710.40,-2095.20"/>
    </edge>
    <edge id=":J20_1" function="internal">
        <lane id=":J20_1_0" index="0" speed="9.26" length="19.35" shape="-1701.60,-2089.60 -1700.85,-2094.85 -1698.60,-2098.60 -1694.85,-2100.85 -1689.60,-2101.60"/>
    </edge>
    <edge id=":J20_2" function="internal">
        <lane id=":J20_2_0" index="0" speed="6.51" length="9.03" shape="-1689.60,-2095.20 -1692.05,-2094.85 -1693.80,-2093.80 -1694.85,-2092.05 -1695.20,-2089.60"/>
    </edge>
    <edge id=":J20_3" function="internal">
        <lane id=":J20_3_0" index="0" speed="16.67" length="20.80" shape="-1689.60,-2095.20 -1710.40,-2095.20"/>
        <lane id=":J20_3_1" index="1" speed="16.67" length="20.80" shape="-1689.60,-2098.40 -1710.40,-2098.40"/>
    </edge>
    <edge id=":J20_5" function="internal">
        <lane id=":J20_5_0" index="0" speed="16.67" length="20.80" shape="-1710.40,-2104.80 -1689.60,-2104.80"/>
        <lane id=":J20_5_1" index="1" speed="16.67" length="20.80" shape="-1710.40,-2101.60 -1689.60,-2101.60"/>
    </edge>
    <edge id=":J20_7" function="internal">
        <lane id=":J20_7_0" index="0" speed="9.26" length="5.01" shape="-1710.40,-2101.60 -1705.44,-2100.89"/>
    </edge>
    <edge id=":J20_8" function="internal">
        <lane id=":J20_8_0" index="0" speed="9.26" length="14.34" shape="-1705.44,-2100.89 -1705.15,-2100.85 -1701.40,-2098.60 -1699.15,-2094.85 -1698.40,-2089.60"/>
    </edge>
    <edge id=":J21_0" function="internal">
        <lane id=":J21_0_0" index="0" speed="6.51" length="9.03" shape="-1104.80,-1489.60 -1105.15,-1492.05 -1106.20,-1493.80 -1107.95,-1494.85 -1110.40,-1495.20"/>
    </edge>
    <edge id=":J21_1" function="internal">
        <lane id=":J21_1_0" index="0" speed="16.67" length="29.85" shape="-1104.80,-1489.60 -1104.80,-1519.45"/>
        <lane id=":J21_1_1" index="1" speed="16.67" length="29.85" shape="-1101.60,-1489.60 -1101.60,-1519.45"/>
    </edge>
    <edge id=":J21_3" function="internal">
        <lane id=":J21_3_0" index="0" speed="16.67" length="4.63" shape="-1101.60,-1489.60 -1100.89,-1494.18"/>
    </edge>
    <edge id=":J21_16" function="internal">
        <lane id=":J21_16_0" index="0" speed="16.67" length="25.03" shape="-1100.89,-1494.18 -1100.71,-1495.33 -1098.04,-1501.45 -1093.60,-1507.97 -1087.38,-1514.89"/>
    </edge>
    <edge id=":J21_4" function="internal">
        <lane id=":J21_4_0" index="0" speed="16.23" length="24.66" shape="-1082.85,-1510.36 -1088.25,-1504.43 -1092.11,-1499.00 -1094.43,-1494.05 -1095.20,-1489.60"/>
    </edge>
    <edge id=":J21_5" function="internal">
        <lane id=":J21_5_0" index="0" speed="16.67" length="32.17" shape="-1082.85,-1510.36 -1090.26,-1503.73 -1097.32,-1498.99 -1104.03,-1496.15 -1110.40,-1495.20"/>
        <lane id=":J21_5_1" index="1" speed="16.67" length="29.67" shape="-1085.11,-1512.62 -1092.03,-1506.40 -1098.55,-1501.96 -1104.67,-1499.29 -1110.40,-1498.40"/>
    </edge>
    <edge id=":J21_7" function="internal">
        <lane id=":J21_7_0" index="0" speed="8.14" length="23.57" shape="-1085.11,-1512.62 -1090.65,-1509.34 -1095.99,-1509.69 -1100.01,-1513.22 -1101.60,-1519.45"/>
    </edge>
    <edge id=":J21_8" function="internal">
        <lane id=":J21_8_0" index="0" speed="5.47" length="9.74" shape="-1095.20,-1519.45 -1094.85,-1516.36 -1093.81,-1514.94 -1092.07,-1515.21 -1089.64,-1517.15"/>
    </edge>
    <edge id=":J21_9" function="internal">
        <lane id=":J21_9_0" index="0" speed="16.67" length="29.85" shape="-1095.20,-1519.45 -1095.20,-1489.60"/>
        <lane id=":J21_9_1" index="1" speed="16.67" length="29.85" shape="-1098.40,-1519.45 -1098.40,-1489.60"/>
    </edge>
    <edge id=":J21_11" function="internal">
        <lane id=":J21_11_0" index="0" speed="10.87" length="8.66" shape="-1098.40,-1519.45 -1099.10,-1510.82"/>
    </edge>
    <edge id=":J21_17" function="internal">
        <lane id=":J21_17_0" index="0" speed="10.87" length="18.39" shape="-1099.10,-1510.82 -1099.15,-1510.24 -1101.40,-1503.66 -1105.15,-1499.72 -1110.40,-1498.40"/>
    </edge>
    <edge id=":J21_12" function="internal">
        <lane id=":J21_12_0" index="0" speed="8.71" length="16.99" shape="-1110.40,-1504.80 -1107.95,-1505.72 -1106.20,-1508.46 -1105.15,-1513.04 -1104.80,-1519.45"/>
    </edge>
    <edge id=":J21_13" function="internal">
        <lane id=":J21_13_0" index="0" speed="16.23" length="24.66" shape="-1110.40,-1504.80 -1105.95,-1505.57 -1101.00,-1507.89 -1095.57,-1511.75 -1089.64,-1517.15"/>
        <lane id=":J21_13_1" index="1" speed="16.67" length="27.36" shape="-1110.40,-1501.60 -1103.58,-1502.68 -1097.79,-1505.59 -1092.55,-1509.83 -1087.38,-1514.89"/>
    </edge>
    <edge id=":J21_15" function="internal">
        <lane id=":J21_15_0" index="0" speed="9.26" length="19.35" shape="-1110.40,-1501.60 -1105.15,-1500.85 -1101.40,-1498.60 -1099.15,-1494.85 -1098.40,-1489.60"/>
    </edge>
    <edge id=":J22_0" function="internal">
        <lane id=":J22_0_0" index="0" speed="6.51" length="9.03" shape="-1104.80,-2089.60 -1105.15,-2092.05 -1106.20,-2093.80 -1107.95,-2094.85 -1110.40,-2095.20"/>
    </edge>
    <edge id=":J22_1" function="internal">
        <lane id=":J22_1_0" index="0" speed="9.26" length="19.35" shape="-1101.60,-2089.60 -1100.85,-2094.85 -1098.60,-2098.60 -1094.85,-2100.85 -1089.60,-2101.60"/>
    </edge>
    <edge id=":J22_2" function="internal">
        <lane id=":J22_2_0" index="0" speed="6.51" length="9.03" shape="-1089.60,-2095.20 -1092.05,-2094.85 -1093.80,-2093.80 -1094.85,-2092.05 -1095.20,-2089.60"/>
    </edge>
    <edge id=":J22_3" function="internal">
        <lane id=":J22_3_0" index="0" speed="16.67" length="20.80" shape="-1089.60,-2095.20 -1110.40,-2095.20"/>
        <lane id=":J22_3_1" index="1" speed="16.67" length="20.80" shape="-1089.60,-2098.40 -1110.40,-2098.40"/>
    </edge>
    <edge id=":J22_5" function="internal">
        <lane id=":J22_5_0" index="0" speed="16.67" length="20.80" shape="-1110.40,-2104.80 -1089.60,-2104.80"/>
        <lane id=":J22_5_1" index="1" speed="16.67" length="20.80" shape="-1110.40,-2101.60 -1089.60,-2101.60"/>
    </edge>
    <edge id=":J22_7" function="internal">
        <lane id=":J22_7_0" index="0" speed="9.26" length="5.01" shape="-1110.40,-2101.60 -1105.44,-2100.89"/>
    </edge>
    <edge id=":J22_8" function="internal">
        <lane id=":J22_8_0" index="0" speed="9.26" length="14.34" shape="-1105.44,-2100.89 -1105.15,-2100.85 -1101.40,-2098.60 -1099.15,-2094.85 -1098.40,-2089.60"/>
    </edge>
    <edge id=":J23_0" function="internal">
        <lane id=":J23_0_0" index="0" speed="9.06" length="29.61" shape="-504.80,-2056.56 -505.15,-2070.15 -506.19,-2079.06 -507.93,-2083.29 -510.36,-2082.85"/>
    </edge>
    <edge id=":J23_1" function="internal">
        <lane id=":J23_1_0" index="0" speed="13.87" length="44.73" shape="-504.80,-2056.56 -505.72,-2073.47 -508.46,-2085.54 -513.04,-2092.79 -519.45,-2095.20"/>
        <lane id=":J23_1_1" index="1" speed="14.60" length="49.70" shape="-501.60,-2056.56 -502.72,-2074.87 -506.06,-2087.94 -511.64,-2095.79 -519.45,-2098.40"/>
    </edge>
    <edge id=":J23_3" function="internal">
        <lane id=":J23_3_0" index="0" speed="7.43" length="23.65" shape="-501.60,-2056.56 -499.39,-2062.26 -494.30,-2064.86 -488.64,-2064.00 -484.75,-2059.30"/>
    </edge>
    <edge id=":J23_4" function="internal">
        <lane id=":J23_4_0" index="0" speed="5.98" length="14.58" shape="-490.82,-2057.27 -492.73,-2062.16 -494.10,-2063.67 -494.93,-2061.80 -495.20,-2056.56"/>
    </edge>
    <edge id=":J23_5" function="internal">
        <lane id=":J23_5_0" index="0" speed="11.34" length="40.03" shape="-490.82,-2057.27 -496.83,-2072.98 -502.47,-2082.85 -507.74,-2086.90 -512.62,-2085.11"/>
    </edge>
    <edge id=":J23_6" function="internal">
        <lane id=":J23_6_0" index="0" speed="16.67" length="49.95" shape="-490.82,-2057.27 -497.35,-2073.87 -504.30,-2085.72 -511.66,-2092.83 -519.45,-2095.20"/>
        <lane id=":J23_6_1" index="1" speed="16.67" length="53.89" shape="-487.78,-2058.28 -494.78,-2075.84 -502.38,-2088.37 -510.61,-2095.89 -519.45,-2098.40"/>
    </edge>
    <edge id=":J23_8" function="internal">
        <lane id=":J23_8_0" index="0" speed="16.67" length="61.81" shape="-519.45,-2104.80 -508.50,-2102.02 -498.56,-2093.68 -489.63,-2079.77 -481.71,-2060.31"/>
    </edge>
    <edge id=":J23_9" function="internal">