<configuration>
  <input>
    <net-file value="example.net.xml" />
  </input>
</configuration>