<?xml version="1.0" encoding="UTF-8"?>
<?xml version="1.0" ?>
<nodes>
  <node id="n0" x="0" y="0"/>
  <node id="n1" x="200" y="0"/>
  <node id="n2" x="400" y="0"/>
  <node id="n3" x="200" y="200"/>
</nodes>
