<?xml version="1.0" encoding="UTF-8"?>
<?xml version="1.0" ?>
<edges>
  <edge id="e0" from="n0" to="n1" numLanes="2" speed="13.89" priority="1"/>
  <edge id="e1" from="n1" to="n2" numLanes="2" speed="13.89" priority="1"/>
  <edge id="e2" from="n1" to="n3" numLanes="1" speed="11.11" priority="0"/>
</edges>
