<?xml version="1.0" encoding="UTF-8"?>

<!-- generated on 2026-01-03 23:59:45 by Eclipse SUMO netconvert Version 1.24.0
<netconvertConfiguration xmlns:xsi="http://www.w3.org/2001/XMLSchema-instance" xsi:noNamespaceSchemaLocation="http://sumo.dlr.de/xsd/netconvertConfiguration.xsd">

    <input>
        <node-files value="result.net.nod.xml"/>
        <edge-files value="result.net.edg.xml"/>
    </input>

    <output>
        <output-file value="result.net.xml"/>
    </output>

    <tls_building>
        <tls.green.time value="30"/>
        <tls.yellow.time value="5"/>
    </tls_building>

</netconvertConfiguration>
-->

<net version="1.20" junctionCornerDetail="5" limitTurnSpeed="5.50" xmlns:xsi="http://www.w3.org/2001/XMLSchema-instance" xsi:noNamespaceSchemaLocation="http://sumo.dlr.de/xsd/net_file.xsd">

    <location netOffset="-50000.00,-50000.00" convBoundary="0.00,0.00,370000.00,460000.00" origBoundary="50000.00,50000.00,420000.00,510000.00" projParameter="!"/>

    <edge id=":J1_0" function="internal">
        <lane id=":J1_0_0" index="0" speed="6.08" length="7.74" shape="3.20,460001.60 1.10,460001.30 -0.40,460000.40 -1.30,459998.90 -1.60,459996.80"/>
    </edge>
    <edge id=":J1_1" function="internal">
        <lane id=":J1_1_0" index="0" speed="3.90" length="2.58" shape="1.60,459996.80 1.70,459997.50 2.00,459998.00 2.50,459998.30 3.20,459998.40"/>
    </edge>
    <edge id=":J10_0" function="internal">
        <lane id=":J10_0_0" index="0" speed="6.51" length="9.03" shape="169998.40,270007.20 169998.05,270004.75 169997.00,270003.00 169995.25,270001.95 169992.80,270001.60"/>
    </edge>
    <edge id=":J10_1" function="internal">
        <lane id=":J10_1_0" index="0" speed="22.22" length="16.85" shape="169998.40,270007.20 169998.40,269990.35"/>
    </edge>
    <edge id=":J10_2" function="internal">
        <lane id=":J10_2_0" index="0" speed="12.89" length="3.41" shape="169998.40,270007.20 169999.12,270003.87"/>
    </edge>
    <edge id=":J10_3" function="internal">
        <lane id=":J10_3_0" index="0" speed="9.70" length="2.73" shape="169998.40,270007.20 169999.13,270004.57"/>
    </edge>
    <edge id=":J10_4" function="internal">
        <lane id=":J10_4_0" index="0" speed="3.65" length="1.44" shape="169998.40,270007.20 169999.20,270006.00"/>
    </edge>
    <edge id=":J10_25" function="internal">
        <lane id=":J10_25_0" index="0" speed="12.89" length="19.20" shape="169999.12,270003.87 169999.28,270003.12 170001.93,269999.00 170006.34,269994.84 170012.51,269990.63"/>
    </edge>
    <edge id=":J10_26" function="internal">
        <lane id=":J10_26_0" index="0" speed="9.70" length="18.63" shape="169999.13,270004.57 169999.47,270003.35 170002.69,270000.60 170008.05,269998.95 170015.55,269998.40"/>
    </edge>
    <edge id=":J10_27" function="internal">
        <lane id=":J10_27_0" index="0" speed="3.65" length="3.23" shape="169999.20,270006.00 170000.00,270005.60 170000.80,270006.00 170001.60,270007.20"/>
    </edge>
    <edge id=":J10_5" function="internal">
        <lane id=":J10_5_0" index="0" speed="8.55" length="16.35" shape="170015.55,270001.60 170009.45,270001.95 170005.09,270003.00 170002.47,270004.75 170001.60,270007.20"/>
    </edge>
    <edge id=":J10_6" function="internal">
        <lane id=":J10_6_0" index="0" speed="22.22" length="22.75" shape="170015.55,270001.60 169992.80,270001.60"/>
    </edge>
    <edge id=":J10_7" function="internal">
        <lane id=":J10_7_0" index="0" speed="10.07" length="7.54" shape="170015.55,270001.60 170008.05,270000.90"/>
    </edge>
    <edge id=":J10_8" function="internal">
        <lane id=":J10_8_0" index="0" speed="6.38" length="2.43" shape="170015.55,270001.60 170013.24,270000.86"/>
    </edge>
    <edge id=":J10_9" function="internal">
        <lane id=":J10_9_0" index="0" speed="3.65" length="1.44" shape="170015.55,270001.60 170014.35,270000.80"/>
    </edge>
    <edge id=":J10_28" function="internal">
        <lane id=":J10_28_0" index="0" speed="10.07" length="15.56" shape="170008.05,270000.90 170002.69,269998.79 169999.47,269995.27 169998.40,269990.35"/>
    </edge>
    <edge id=":J10_29" function="internal">
        <lane id=":J10_29_0" index="0" speed="6.38" length="13.03" shape="170013.24,270000.86 170011.65,270000.34 170009.63,269997.33 170009.81,269993.71 170012.51,269990.63"/>
    </edge>
    <edge id=":J10_30" function="internal">
        <lane id=":J10_30_0" index="0" speed="3.65" length="3.23" shape="170014.35,270000.80 170013.95,270000.00 170014.35,269999.20 170015.55,269998.40"/>
    </edge>
    <edge id=":J10_10" function="internal">
        <lane id=":J10_10_0" index="0" speed="5.51" length="11.05" shape="170014.16,269993.37 170011.10,269995.57 170010.32,269997.14 170011.80,269998.09 170015.55,269998.40"/>
    </edge>
    <edge id=":J10_11" function="internal">
        <lane id=":J10_11_0" index="0" speed="11.95" length="19.34" shape="170014.16,269993.37 170008.66,269997.06 170004.74,270000.60 170002.38,270003.98 170001.60,270007.20"/>
    </edge>
    <edge id=":J10_12" function="internal">
        <lane id=":J10_12_0" index="0" speed="21.42" length="23.02" shape="170014.16,269993.37 170009.72,269995.74 170003.75,269998.45 169997.64,270000.68 169992.80,270001.60"/>
    </edge>
    <edge id=":J10_13" function="internal">
        <lane id=":J10_13_0" index="0" speed="8.22" length="21.24" shape="170014.16,269993.37 170007.26,269996.73 170002.34,269997.34 169999.38,269995.22 169998.40,269990.35"/>
    </edge>
    <edge id=":J10_14" function="internal">
        <lane id=":J10_14_0" index="0" speed="3.65" length="1.44" shape="170014.16,269993.37 170012.72,269993.30"/>
    </edge>
    <edge id=":J10_31" function="internal">
        <lane id=":J10_31_0" index="0" speed="3.65" length="3.23" shape="170012.72,269993.30 170011.96,269992.82 170011.90,269991.93 170012.51,269990.63"/>
    </edge>
    <edge id=":J10_15" function="internal">
        <lane id=":J10_15_0" index="0" speed="6.73" length="13.76" shape="170001.60,269990.35 170002.28,269992.93 170004.33,269993.83 170007.74,269993.06 170012.51,269990.63"/>
    </edge>
    <edge id=":J10_16" function="internal">
        <lane id=":J10_16_0" index="0" speed="8.95" length="18.00" shape="170001.60,269990.35 170002.47,269993.87 170005.09,269996.39 170009.45,269997.90 170015.55,269998.40"/>
    </edge>
    <edge id=":J10_17" function="internal">
        <lane id=":J10_17_0" index="0" speed="22.22" length="16.85" shape="170001.60,269990.35 170001.60,270007.20"/>
    </edge>
    <edge id=":J10_18" function="internal">
        <lane id=":J10_18_0" index="0" speed="8.52" length="5.21" shape="170001.60,269990.35 170001.05,269995.27 170000.94,269995.50"/>
    </edge>
    <edge id=":J10_19" function="internal">
        <lane id=":J10_19_0" index="0" speed="3.65" length="1.44" shape="170001.60,269990.35 170000.80,269991.55"/>
    </edge>
    <edge id=":J10_32" function="internal">
        <lane id=":J10_32_0" index="0" speed="8.52" length="11.01" shape="170000.94,269995.50 169999.40,269998.79 169996.65,270000.90 169992.80,270001.60"/>
    </edge>
    <edge id=":J10_33" function="internal">
        <lane id=":J10_33_0" index="0" speed="3.65" length="3.23" shape="170000.80,269991.55 170000.00,269991.95 169999.20,269991.55 169998.40,269990.35"/>
    </edge>
    <edge id=":J10_20" function="internal">
        <lane id=":J10_20_0" index="0" speed="7.14" length="11.08" shape="169992.80,269998.40 169995.25,269997.90 169997.00,269996.39 169998.05,269993.87 169998.40,269990.35"/>
    </edge>
    <edge id=":J10_21" function="internal">
        <lane id=":J10_21_0" index="0" speed="20.63" length="21.33" shape="169992.80,269998.40 169997.39,269997.55 170002.92,269995.48 170008.33,269992.93 170012.51,269990.63"/>
    </edge>
    <edge id=":J10_22" function="internal">
        <lane id=":J10_22_0" index="0" speed="22.22" length="22.75" shape="169992.80,269998.40 170015.55,269998.40"/>
    </edge>
    <edge id=":J10_23" function="internal">
        <lane id=":J10_23_0" index="0" speed="8.00" length="4.07" shape="169992.80,269998.40 169996.65,269998.95 169996.80,269999.04"/>
    </edge>
    <edge id=":J10_24" function="internal">
        <lane id=":J10_24_0" index="0" speed="3.65" length="1.44" shape="169992.80,269998.40 169994.00,269999.20"/>
    </edge>
    <edge id=":J10_34" function="internal">
        <lane id=":J10_34_0" index="0" speed="8.00" length="10.13" shape="169996.80,269999.04 169999.40,270000.60 170001.05,270003.35 170001.60,270007.20"/>
    </edge>
    <edge id=":J10_35" function="internal">
        <lane id=":J10_35_0" index="0" speed="3.65" length="3.23" shape="169994.00,269999.20 169994.40,270000.00 169994.00,270000.80 169992.80,270001.60"/>
    </edge>
    <edge id=":J11_0" function="internal">
        <lane id=":J11_0_0" index="0" speed="6.51" length="9.03" shape="79998.40,270007.20 79998.05,270004.75 79997.00,270003.00 79995.25,270001.95 79992.80,270001.60"/>
    </edge>
    <edge id=":J11_1" function="internal">
        <lane id=":J11_1_0" index="0" speed="22.22" length="14.40" shape="79998.40,270007.20 79998.40,269992.80"/>
    </edge>
    <edge id=":J11_2" function="internal">
        <lane id=":J11_2_0" index="0" speed="8.00" length="4.07" shape="79998.40,270007.20 79998.95,270003.35 79999.04,270003.20"/>
    </edge>
    <edge id=":J11_3" function="internal">
        <lane id=":J11_3_0" index="0" speed="3.65" length="1.44" shape="79998.40,270007.20 79999.20,270006.00"/>
    </edge>
    <edge id=":J11_16" function="internal">
        <lane id=":J11_16_0" index="0" speed="8.00" length="10.13" shape="79999.04,270003.20 80000.60,270000.60 80003.35,269998.95 80007.20,269998.40"/>
    </edge>
    <edge id=":J11_17" function="internal">
        <lane id=":J11_17_0" index="0" speed="3.65" length="3.23" shape="79999.20,270006.00 80000.00,270005.60 80000.80,270006.00 80001.60,270007.20"/>
    </edge>
    <edge id=":J11_4" function="internal">
        <lane id=":J11_4_0" index="0" speed="6.51" length="9.03" shape="80007.20,270001.60 80004.75,270001.95 80003.00,270003.00 80001.95,270004.75 80001.60,270007.20"/>
    </edge>
    <edge id=":J11_5" function="internal">
        <lane id=":J11_5_0" index="0" speed="22.22" length="14.40" shape="80007.20,270001.60 79992.80,270001.60"/>
    </edge>
    <edge id=":J11_6" function="internal">
        <lane id=":J11_6_0" index="0" speed="8.00" length="4.07" shape="80007.20,270001.60 80003.35,270001.05 80003.20,270000.96"/>
    </edge>
    <edge id=":J11_7" function="internal">
        <lane id=":J11_7_0" index="0" speed="3.65" length="1.44" shape="80007.20,270001.60 80006.00,270000.80"/>
    </edge>
    <edge id=":J11_18" function="internal">
        <lane id=":J11_18_0" index="0" speed="8.00" length="10.13" shape="80003.20,270000.96 80000.60,269999.40 79998.95,269996.65 79998.40,269992.80"/>
    </edge>
    <edge id=":J11_19" function="internal">
        <lane id=":J11_19_0" index="0" speed="3.65" length="3.23" shape="80006.00,270000.80 80005.60,270000.00 80006.00,269999.20 80007.20,269998.40"/>
    </edge>
    <edge id=":J11_8" function="internal">
        <lane id=":J11_8_0" index="0" speed="6.51" length="9.03" shape="80001.60,269992.80 80001.95,269995.25 80003.00,269997.00 80004.75,269998.05 80007.20,269998.40"/>
    </edge>
    <edge id=":J11_9" function="internal">
        <lane id=":J11_9_0" index="0" speed="22.22" length="14.40" shape="80001.60,269992.80 80001.60,270007.20"/>
    </edge>
    <edge id=":J11_10" function="internal">
        <lane id=":J11_10_0" index="0" speed="8.00" length="4.07" shape="80001.60,269992.80 80001.05,269996.65 80000.96,269996.80"/>
    </edge>
    <edge id=":J11_11" function="internal">
        <lane id=":J11_11_0" index="0" speed="3.65" length="1.44" shape="80001.60,269992.80 80000.80,269994.00"/>
    </edge>
    <edge id=":J11_20" function="internal">
        <lane id=":J11_20_0" index="0" speed="8.00" length="10.13" shape="80000.96,269996.80 79999.40,269999.40 79996.65,270001.05 79992.80,270001.60"/>
    </edge>
    <edge id=":J11_21" function="internal">
        <lane id=":J11_21_0" index="0" speed="3.65" length="3.23" shape="80000.80,269994.00 80000.00,269994.40 79999.20,269994.00 79998.40,269992.80"/>
    </edge>
    <edge id=":J11_12" function="internal">
        <lane id=":J11_12_0" index="0" speed="6.51" length="9.03" shape="79992.80,269998.40 79995.25,269998.05 79997.00,269997.00 79998.05,269995.25 79998.40,269992.80"/>
    </edge>
    <edge id=":J11_13" function="internal">
        <lane id=":J11_13_0" index="0" speed="22.22" length="14.40" shape="79992.80,269998.40 80007.20,269998.40"/>
    </edge>
    <edge id=":J11_14" function="internal">
        <lane id=":J11_14_0" index="0" speed="8.00" length="4.07" shape="79992.80,269998.40 79996.65,269998.95 79996.80,269999.04"/>
    </edge>
    <edge id=":J11_15" function="internal">
        <lane id=":J11_15_0" index="0" speed="3.65" length="1.44" shape="79992.80,269998.40 79994.00,269999.20"/>
    </edge>
    <edge id=":J11_22" function="internal">
        <lane id=":J11_22_0" index="0" speed="8.00" length="10.13" shape="79996.80,269999.04 79999.40,270000.60 80001.05,270003.35 80001.60,270007.20"/>
    </edge>
    <edge id=":J11_23" function="internal">
        <lane id=":J11_23_0" index="0" speed="3.65" length="3.23" shape="79994.00,269999.20 79994.40,270000.00 79994.00,270000.80 79992.80,270001.60"/>
    </edge>
    <edge id=":J12_0" function="internal">
        <lane id=":J12_0_0" index="0" speed="22.22" length="14.40" shape="-1.60,270007.20 -1.60,269992.80"/>
    </edge>
    <edge id=":J12_1" function="internal">
        <lane id=":J12_1_0" index="0" speed="8.00" length="4.07" shape="-1.60,270007.20 -1.05,270003.35 -0.96,270003.20"/>
    </edge>
    <edge id=":J12_2" function="internal">
        <lane id=":J12_2_0" index="0" speed="3.65" length="1.44" shape="-1.60,270007.20 -0.80,270006.00"/>
    </edge>
    <edge id=":J12_9" function="internal">
        <lane id=":J12_9_0" index="0" speed="8.00" length="10.13" shape="-0.96,270003.20 0.60,270000.60 3.35,269998.95 7.20,269998.40"/>
    </edge>
    <edge id=":J12_10" function="internal">
        <lane id=":J12_10_0" index="0" speed="3.65" length="3.23" shape="-0.80,270006.00 0.00,270005.60 0.80,270006.00 1.60,270007.20"/>
    </edge>
    <edge id=":J12_3" function="internal">
        <lane id=":J12_3_0" index="0" speed="6.51" length="9.03" shape="7.20,270001.60 4.75,270001.95 3.00,270003.00 1.95,270004.75 1.60,270007.20"/>
    </edge>
    <edge id=":J12_4" function="internal">
        <lane id=":J12_4_0" index="0" speed="8.00" length="14.19" shape="7.20,270001.60 3.35,270001.05 0.60,269999.40 -1.05,269996.65 -1.60,269992.80"/>
    </edge>
    <edge id=":J12_5" function="internal">
        <lane id=":J12_5_0" index="0" speed="3.65" length="1.44" shape="7.20,270001.60 6.00,270000.80"/>
    </edge>
    <edge id=":J12_11" function="internal">
        <lane id=":J12_11_0" index="0" speed="3.65" length="3.23" shape="6.00,270000.80 5.60,270000.00 6.00,269999.20 7.20,269998.40"/>
    </edge>
    <edge id=":J12_6" function="internal">
        <lane id=":J12_6_0" index="0" speed="6.51" length="9.03" shape="1.60,269992.80 1.95,269995.25 3.00,269997.00 4.75,269998.05 7.20,269998.40"/>
    </edge>
    <edge id=":J12_7" function="internal">
        <lane id=":J12_7_0" index="0" speed="22.22" length="14.40" shape="1.60,269992.80 1.60,270007.20"/>
    </edge>
    <edge id=":J12_8" function="internal">
        <lane id=":J12_8_0" index="0" speed="3.65" length="1.44" shape="1.60,269992.80 0.80,269994.00"/>
    </edge>
    <edge id=":J12_12" function="internal">
        <lane id=":J12_12_0" index="0" speed="3.65" length="3.23" shape="0.80,269994.00 0.00,269994.40 -0.80,269994.00 -1.60,269992.80"/>
    </edge>
    <edge id=":J13_0" function="internal">
        <lane id=":J13_0_0" index="0" speed="6.08" length="7.74" shape="-1.60,3.20 -1.30,1.10 -0.40,-0.40 1.10,-1.30 3.20,-1.60"/>
    </edge>
    <edge id=":J13_1" function="internal">
        <lane id=":J13_1_0" index="0" speed="3.90" length="2.58" shape="3.20,1.60 2.50,1.70 2.00,2.00 1.70,2.50 1.60,3.20"/>
    </edge>
    <edge id=":J14_0" function="internal">
        <lane id=":J14_0_0" index="0" speed="22.22" length="14.40" shape="79998.40,140007.20 79998.40,139992.80"/>
    </edge>
    <edge id=":J14_1" function="internal">
        <lane id=":J14_1_0" index="0" speed="8.00" length="4.07" shape="79998.40,140007.20 79998.95,140003.35 79999.04,140003.20"/>
    </edge>
    <edge id=":J14_2" function="internal">
        <lane id=":J14_2_0" index="0" speed="3.65" length="1.44" shape="79998.40,140007.20 79999.20,140006.00"/>
    </edge>
    <edge id=":J14_9" function="internal">
        <lane id=":J14_9_0" index="0" speed="8.00" length="10.13" shape="79999.04,140003.20 80000.60,140000.60 80003.35,139998.95 80007.20,139998.40"/>
    </edge>
    <edge id=":J14_10" function="internal">
        <lane id=":J14_10_0" index="0" speed="3.65" length="3.23" shape="79999.20,140006.00 80000.00,140005.60 80000.80,140006.00 80001.60,140007.20"/>
    </edge>
    <edge id=":J14_3" function="internal">
        <lane id=":J14_3_0" index="0" speed="6.51" length="9.03" shape="80007.20,140001.60 80004.75,140001.95 80003.00,140003.00 80001.95,140004.75 80001.60,140007.20"/>
    </edge>
    <edge id=":J14_4" function="internal">
        <lane id=":J14_4_0" index="0" speed="8.00" length="14.19" shape="80007.20,140001.60 80003.35,140001.05 80000.60,139999.40 79998.95,139996.65 79998.40,139992.80"/>
    </edge>
    <edge id=":J14_5" function="internal">
        <lane id=":J14_5_0" index="0" speed="3.65" length="1.44" shape="80007.20,140001.60 80006.00,140000.80"/>
    </edge>
    <edge id=":J14_11" function="internal">
        <lane id=":J14_11_0" index="0" speed="3.65" length="3.23" shape="80006.00,140000.80 80005.60,140000.00 80006.00,139999.20 80007.20,139998.40"/>
    </edge>
    <edge id=":J14_6" function="internal">
        <lane id=":J14_6_0" index="0" speed="6.51" length="9.03" shape="80001.60,139992.80 80001.95,139995.25 80003.00,139997.00 80004.75,139998.05 80007.20,139998.40"/>
    </edge>
    <edge id=":J14_7" function="internal">
        <lane id=":J14_7_0" index="0" speed="22.22" length="14.40" shape="80001.60,139992.80 80001.60,140007.20"/>
    </edge>
    <edge id=":J14_8" function="internal">
        <lane id=":J14_8_0" index="0" speed="3.65" length="1.44" shape="80001.60,139992.80 80000.80,139994.00"/>
    </edge>
    <edge id=":J14_12" function="internal">
        <lane id=":J14_12_0" index="0" speed="3.65" length="3.23" shape="80000.80,139994.00 80000.00,139994.40 79999.20,139994.00 79998.40,139992.80"/>
    </edge>
    <edge id=":J15_0" function="internal">
        <lane id=":J15_0_0" index="0" speed="6.51" length="9.03" shape="169998.40,140007.20 169998.05,140004.75 169997.00,140003.00 169995.25,140001.95 169992.80,140001.60"/>
    </edge>
    <edge id=":J15_1" function="internal">
        <lane id=":J15_1_0" index="0" speed="22.22" length="14.40" shape="169998.40,140007.20 169998.40,139992.80"/>
    </edge>
    <edge id=":J15_2" function="internal">
        <lane id=":J15_2_0" index="0" speed="8.00" length="4.07" shape="169998.40,140007.20 169998.95,140003.35 169999.04,140003.20"/>
    </edge>
    <edge id=":J15_3" function="internal">
        <lane id=":J15_3_0" index="0" speed="3.65" length="1.44" shape="169998.40,140007.20 169999.20,140006.00"/>
    </edge>
    <edge id=":J15_16" function="internal">
        <lane id=":J15_16_0" index="0" speed="8.00" length="10.13" shape="169999.04,140003.20 170000.60,140000.60 170003.35,139998.95 170007.20,139998.40"/>
    </edge>
    <edge id=":J15_17" function="internal">
        <lane id=":J15_17_0" index="0" speed="3.65" length="3.23" shape="169999.20,140006.00 170000.00,140005.60 170000.80,140006.00 170001.60,140007.20"/>
    </edge>
    <edge id=":J15_4" function="internal">
        <lane id=":J15_4_0" index="0" speed="6.51" length="9.03" shape="170007.20,140001.60 170004.75,140001.95 170003.00,140003.00 170001.95,140004.75 170001.60,140007.20"/>
    </edge>
    <edge id=":J15_5" function="internal">
        <lane id=":J15_5_0" index="0" speed="22.22" length="14.40" shape="170007.20,140001.60 169992.80,140001.60"/>
    </edge>
    <edge id=":J15_6" function="internal">
        <lane id=":J15_6_0" index="0" speed="8.00" length="4.07" shape="170007.20,140001.60 170003.35,140001.05 170003.20,140000.96"/>
    </edge>
    <edge id=":J15_7" function="internal">
        <lane id=":J15_7_0" index="0" speed="3.65" length="1.44" shape="170007.20,140001.60 170006.00,140000.80"/>
    </edge>
    <edge id=":J15_18" function="internal">
        <lane id=":J15_18_0" index="0" speed="8.00" length="10.13" shape="170003.20,140000.96 170000.60,139999.40 169998.95,139996.65 169998.40,139992.80"/>
    </edge>
    <edge id=":J15_19" function="internal">
        <lane id=":J15_19_0" index="0" speed="3.65" length="3.23" shape="170006.00,140000.80 170005.60,140000.00 170006.00,139999.20 170007.20,139998.40"/>
    </edge>
    <edge id=":J15_8" function="internal">
        <lane id=":J15_8_0" index="0" speed="6.51" length="9.03" shape="170001.60,139992.80 170001.95,139995.25 170003.00,139997.00 170004.75,139998.05 170007.20,139998.40"/>
    </edge>
    <edge id=":J15_9" function="internal">
        <lane id=":J15_9_0" index="0" speed="22.22" length="14.40" shape="170001.60,139992.80 170001.60,140007.20"/>
    </edge>
    <edge id=":J15_10" function="internal">
        <lane id=":J15_10_0" index="0" speed="8.00" length="4.07" shape="170001.60,139992.80 170001.05,139996.65 170000.96,139996.80"/>
    </edge>
    <edge id=":J15_11" function="internal">
        <lane id=":J15_11_0" index="0" speed="3.65" length="1.44" shape="170001.60,139992.80 170000.80,139994.00"/>
    </edge>
    <edge id=":J15_20" function="internal">
        <lane id=":J15_20_0" index="0" speed="8.00" length="10.13" shape="170000.96,139996.80 169999.40,139999.40 169996.65,140001.05 169992.80,140001.60"/>
    </edge>
    <edge id=":J15_21" function="internal">
        <lane id=":J15_21_0" index="0" speed="3.65" length="3.23" shape="170000.80,139994.00 170000.00,139994.40 169999.20,139994.00 169998.40,139992.80"/>
    </edge>
    <edge id=":J15_12" function="internal">
        <lane id=":J15_12_0" index="0" speed="6.51" length="9.03" shape="169992.80,139998.40 169995.25,139998.05 169997.00,139997.00 169998.05,139995.25 169998.40,139992.80"/>
    </edge>
    <edge id=":J15_13" function="internal">
        <lane id=":J15_13_0" index="0" speed="22.22" length="14.40" shape="169992.80,139998.40 170007.20,139998.40"/>
    </edge>
    <edge id=":J15_14" function="internal">
        <lane id=":J15_14_0" index="0" speed="8.00" length="4.07" shape="169992.80,139998.40 169996.65,139998.95 169996.80,139999.04"/>
    </edge>
    <edge id=":J15_15" function="internal">
        <lane id=":J15_15_0" index="0" speed="3.65" length="1.44" shape="169992.80,139998.40 169994.00,139999.20"/>
    </edge>
    <edge id=":J15_22" function="internal">
        <lane id=":J15_22_0" index="0" speed="8.00" length="10.13" shape="169996.80,139999.04 169999.40,140000.60 170001.05,140003.35 170001.60,140007.20"/>
    </edge>
    <edge id=":J15_23" function="internal">
        <lane id=":J15_23_0" index="0" speed="3.65" length="3.23" shape="169994.00,139999.20 169994.40,140000.00 169994.00,140000.80 169992.80,140001.60"/>
    </edge>
    <edge id=":J16_0" function="internal">
        <lane id=":J16_0_0" index="0" speed="6.51" length="9.03" shape="269998.40,270007.20 269998.05,270004.75 269997.00,270003.00 269995.25,270001.95 269992.80,270001.60"/>
    </edge>
    <edge id=":J16_1" function="internal">
        <lane id=":J16_1_0" index="0" speed="22.22" length="14.40" shape="269998.40,270007.20 269998.40,269992.80"/>
    </edge>
    <edge id=":J16_2" function="internal">
        <lane id=":J16_2_0" index="0" speed="8.00" length="4.07" shape="269998.40,270007.20 269998.95,270003.35 269999.04,270003.20"/>
    </edge>
    <edge id=":J16_3" function="internal">
        <lane id=":J16_3_0" index="0" speed="3.65" length="1.44" shape="269998.40,270007.20 269999.20,270006.00"/>
    </edge>
    <edge id=":J16_16" function="internal">
        <lane id=":J16_16_0" index="0" speed="8.00" length="10.13" shape="269999.04,270003.20 270000.60,270000.60 270003.35,269998.95 270007.20,269998.40"/>
    </edge>
    <edge id=":J16_17" function="internal">
        <lane id=":J16_17_0" index="0" speed="3.65" length="3.23" shape="269999.20,270006.00 270000.00,270005.60 270000.80,270006.00 270001.60,270007.20"/>
    </edge>
    <edge id=":J16_4" function="internal">
        <lane id=":J16_4_0" index="0" speed="6.51" length="9.03" shape="270007.20,270001.60 270004.75,270001.95 270003.00,270003.00 270001.95,270004.75 270001.60,270007.20"/>
    </edge>
    <edge id=":J16_5" function="internal">
        <lane id=":J16_5_0" index="0" speed="22.22" length="14.40" shape="270007.20,270001.60 269992.80,270001.60"/>
    </edge>
    <edge id=":J16_6" function="internal">
        <lane id=":J16_6_0" index="0" speed="8.00" length="4.07" shape="270007.20,270001.60 270003.35,270001.05 270003.20,270000.96"/>
    </edge>
    <edge id=":J16_7" function="internal">
        <lane id=":J16_7_0" index="0" speed="3.65" length="1.44" shape="270007.20,270001.60 270006.00,270000.80"/>
    </edge>
    <edge id=":J16_18" function="internal">
        <lane id=":J16_18_0" index="0" speed="8.00" length="10.13" shape="270003.20,270000.96 270000.60,269999.40 269998.95,269996.65 269998.40,269992.80"/>
    </edge>
    <edge id=":J16_19" function="internal">
        <lane id=":J16_19_0" index="0" speed="3.65" length="3.23" shape="270006.00,270000.80 270005.60,270000.00 270006.00,269999.20 270007.20,269998.40"/>
    </edge>
    <edge id=":J16_8" function="internal">
        <lane id=":J16_8_0" index="0" speed="6.51" length="9.03" shape="270001.60,269992.80 270001.95,269995.25 270003.00,269997.00 270004.75,269998.05 270007.20,269998.40"/>
    </edge>
    <edge id=":J16_9" function="internal">
        <lane id=":J16_9_0" index="0" speed="22.22" length="14.40" shape="270001.60,269992.80 270001.60,270007.20"/>
    </edge>
    <edge id=":J16_10" function="internal">
        <lane id=":J16_10_0" index="0" speed="8.00" length="4.07" shape="270001.60,269992.80 270001.05,269996.65 270000.96,269996.80"/>
    </edge>
    <edge id=":J16_11" function="internal">
        <lane id=":J16_11_0" index="0" speed="3.65" length="1.44" shape="270001.60,269992.80 270000.80,269994.00"/>
    </edge>
    <edge id=":J16_20" function="internal">
        <lane id=":J16_20_0" index="0" speed="8.00" length="10.13" shape="270000.96,269996.80 269999.40,269999.40 269996.65,270001.05 269992.80,270001.60"/>
    </edge>
    <edge id=":J16_21" function="internal">
        <lane id=":J16_21_0" index="0" speed="3.65" length="3.23" shape="270000.80,269994.00 270000.00,269994.40 269999.20,269994.00 269998.40,269992.80"/>
    </edge>
    <edge id=":J16_12" function="internal">
        <lane id=":J16_12_0" index="0" speed="6.51" length="9.03" shape="269992.80,269998.40 269995.25,269998.05 269997.00,269997.00 269998.05,269995.25 269998.40,269992.80"/>
    </edge>
    <edge id=":J16_13" function="internal">
        <lane id=":J16_13_0" index="0" speed="22.22" length="14.40" shape="269992.80,269998.40 270007.20,269998.40"/>
    </edge>
    <edge id=":J16_14" function="internal">
        <lane id=":J16_14_0" index="0" speed="8.00" length="4.07" shape="269992.80,269998.40 269996.65,269998.95 269996.80,269999.04"/>
    </edge>
    <edge id=":J16_15" function="internal">
        <lane id=":J16_15_0" index="0" speed="3.65" length="1.44" shape="269992.80,269998.40 269994.00,269999.20"/>
    </edge>
    <edge id=":J16_22" function="internal">
        <lane id=":J16_22_0" index="0" speed="8.00" length="10.13" shape="269996.80,269999.04 269999.40,270000.60 270001.05,270003.35 270001.60,270007.20"/>
    </edge>
    <edge id=":J16_23" function="internal">
        <lane id=":J16_23_0" index="0" speed="3.65" length="3.23" shape="269994.00,269999.20 269994.40,270000.00 269994.00,270000.80 269992.80,270001.60"/>
    </edge>
    <edge id=":J17_0" function="internal">
        <lane id=":J17_0_0" index="0" speed="5.65" length="9.26" shape="269998.40,210009.65 269998.03,210006.88 269996.94,210005.41 269995.11,210005.23 269992.55,210006.34"/>
    </edge>
    <edge id=":J17_1" function="internal">
        <lane id=":J17_1_0" index="0" speed="22.22" length="15.46" shape="269998.40,210009.65 269998.40,209994.19"/>
    </edge>
    <edge id=":J17_2" function="internal">
        <lane id=":J17_2_0" index="0" speed="3.65" length="1.44" shape="269998.40,210009.65 269999.20,210008.45"/>
    </edge>
    <edge id=":J17_9" function="internal">
        <lane id=":J17_9_0" index="0" speed="3.65" length="3.23" shape="269999.20,210008.45 270000.00,210008.05 270000.80,210008.45 270001.60,210009.65"/>
    </edge>
    <edge id=":J17_3" function="internal">
        <lane id=":J17_3_0" index="0" speed="22.22" length="15.46" shape="270001.60,209994.19 270001.60,210009.65"/>
    </edge>
    <edge id=":J17_4" function="internal">
        <lane id=":J17_4_0" index="0" speed="10.84" length="3.54" shape="270001.60,209994.19 270001.03,209997.47 270000.93,209997.65"/>
    </edge>
    <edge id=":J17_5" function="internal">
        <lane id=":J17_5_0" index="0" speed="3.65" length="1.44" shape="270001.60,209994.19 270000.80,209995.39"/>
    </edge>
    <edge id=":J17_10" function="internal">
        <lane id=":J17_10_0" index="0" speed="10.84" length="12.28" shape="270000.93,209997.65 269999.34,210000.58 269996.51,210003.54 269992.55,210006.34"/>
    </edge>
    <edge id=":J17_11" function="internal">
        <lane id=":J17_11_0" index="0" speed="3.65" length="3.23" shape="270000.80,209995.39 270000.00,209995.79 269999.20,209995.39 269998.40,209994.19"/>
    </edge>
    <edge id=":J17_6" function="internal">