<?xml version="1.0" encoding="UTF-8"?>

<routes xmlns:xsi="http://www.w3.org/2001/XMLSchema-instance" xsi:noNamespaceSchemaLocation="http://sumo.dlr.de/xsd/routes_file.xsd">

    <vType id="default" accel="2.6" decel="4.5" sigma="0.5" length="5.0" minGap="2.5" maxSpeed="55.56" color="yellow" vClass="passenger"/>
    <vType id="car" accel="2.6" decel="4.5" sigma="0.5" length="5.0" minGap="2.5" maxSpeed="33.33" color="red" vClass="passenger"/>

    <trip id="trip_1" depart="1" from="E2_3" to="E21_22" type="car" color="1,0,0"/>
    <trip id="trip_2" depart="1" from="E20_21" to="E2_3" type="car" color="1,0,0"/>
    <trip id="trip_3" depart="2" from="E16_17" to="E14_15" type="car" color="1,0,0"/>
    <trip id="trip_4" depart="5" from="E18_19" to="E6_7" type="car" color="1,0,0"/>
    <trip id="trip_5" depart="7" from="E8_9" to="E13_14" type="car" color="1,0,0"/>
    <trip id="trip_6" depart="7" from="E15_16" to="E16_17" type="car" color="1,0,0"/>
    <trip id="trip_7" depart="8" from="E15_16" to="E1_2" type="car" color="1,0,0"/>
    <trip id="trip_8" depart="8" from="E4_5" to="E22_23" type="car" color="1,0,0"/>
    <trip id="trip_9" depart="10" from="E16_17" to="E15_16" type="car" color="1,0,0"/>
    <trip id="trip_10" depart="10" from="E8_9" to="E23_24" type="car" color="1,0,0"/>
    <trip id="trip_11" depart="11" from="E7_8" to="E16_17" type="car" color="1,0,0"/>
    <trip id="trip_12" depart="13" from="E9_10" to="E18_19" type="car" color="1,0,0"/>
    <trip id="trip_13" depart="13" from="E18_19" to="E12_13" type="car" color="1,0,0"/>
    <trip id="trip_14" depart="15" from="E10_11" to="E11_12" type="car" color="1,0,0"/>
    <trip id="trip_15" depart="15" from="E17_18" to="E6_7" type="car" color="1,0,0"/>
    <trip id="trip_16" depart="17" from="E10_11" to="E7_8" type="car" color="1,0,0"/>
    <trip id="trip_17" depart="17" from="E18_19" to="E1_2" type="car" color="1,0,0"/>
    <trip id="trip_18" depart="18" from="E17_18" to="E8_9" type="car" color="1,0,0"/>
    <trip id="trip_19" depart="18" from="E21_22" to="E23_24" type="car" color="1,0,0"/>
    <trip id="trip_20" depart="19" from="E17_18" to="E20_21" type="car" color="1,0,0"/>
    <trip id="trip_21" depart="20" from="E13_14" to="E11_12" type="car" color="1,0,0"/>
    <trip id="trip_22" depart="20" from="E3_4" to="E13_14" type="car" color="1,0,0"/>
    <trip id="trip_23" depart="22" from="E19_20" to="E23_24" type="car" color="1,0,0"/>
    <trip id="trip_24" depart="23" from="E7_8" to="E22_23" type="car" color="1,0,0"/>
    <trip id="trip_25" depart="24" from="E7_8" to="E17_18" type="car" color="1,0,0"/>
    <trip id="trip_26" depart="25" from="E20_21" to="E8_9" type="car" color="1,0,0"/>
    <trip id="trip_27" depart="26" from="E18_19" to="E4_5" type="car" color="1,0,0"/>
    <trip id="trip_28" depart="27" from="E15_16" to="E14_15" type="car" color="1,0,0"/>
    <trip id="trip_29" depart="27" from="E23_24" to="E3_4" type="car" color="1,0,0"/>
    <trip id="trip_30" depart="28" from="E18_19" to="E22_23" type="car" color="1,0,0"/>
    <trip id="trip_31" depart="30" from="E1_2" to="E16_17" type="car" color="1,0,0"/>
    <trip id="trip_32" depart="32" from="E19_20" to="E9_10" type="car" color="1,0,0"/>
    <trip id="trip_33" depart="33" from="E11_12" to="E7_8" type="car" color="1,0,0"/>
    <trip id="trip_34" depart="34" from="E22_23" to="E2_3" type="car" color="1,0,0"/>
    <trip id="trip_35" depart="36" from="E9_10" to="E8_9" type="car" color="1,0,0"/>
    <trip id="trip_36" depart="36" from="E4_5" to="E3_4" type="car" color="1,0,0"/>
    <trip id="trip_37" depart="37" from="E16_17" to="E24_25" type="car" color="1,0,0"/>
    <trip id="trip_38" depart="37" from="E5_6" to="E4_5" type="car" color="1,0,0"/>
    <trip id="trip_39" depart="37" from="E17_18" to="E8_9" type="car" color="1,0,0"/>
    <trip id="trip_40" depart="37" from="E23_24" to="E3_4" type="car" color="1,0,0"/>
    <trip id="trip_41" depart="38" from="E1_2" to="E7_8" type="car" color="1,0,0"/>
    <trip id="trip_42" depart="38" from="E12_13" to="E1_2" type="car" color="1,0,0"/>
    <trip id="trip_43" depart="40" from="E11_12" to="E21_22" type="car" color="1,0,0"/>
    <trip id="trip_44" depart="41" from="E3_4" to="E15_16" type="car" color="1,0,0"/>
    <trip id="trip_45" depart="41" from="E15_16" to="E21_22" type="car" color="1,0,0"/>
    <trip id="trip_46" depart="43" from="E10_11" to="E8_9" type="car" color="1,0,0"/>
    <trip id="trip_47" depart="44" from="E12_13" to="E17_18" type="car" color="1,0,0"/>
    <trip id="trip_48" depart="44" from="E2_3" to="E13_14" type="car" color="1,0,0"/>
    <trip id="trip_49" depart="44" from="E22_23" to="E19_20" type="car" color="1,0,0"/>
    <trip id="trip_50" depart="45" from="E1_2" to="E9_10" type="car" color="1,0,0"/>
    <trip id="trip_51" depart="46" from="E23_24" to="E7_8" type="car" color="1,0,0"/>
    <trip id="trip_52" depart="46" from="E24_25" to="E1_2" type="car" color="1,0,0"/>
    <trip id="trip_53" depart="46" from="E7_8" to="E1_2" type="car" color="1,0,0"/>
    <trip id="trip_54" depart="47" from="E8_9" to="E3_4" type="car" color="1,0,0"/>
    <trip id="trip_55" depart="50" from="E4_5" to="E2_3" type="car" color="1,0,0"/>
    <trip id="trip_56" depart="50" from="E8_9" to="E20_21" type="car" color="1,0,0"/>
    <trip id="trip_57" depart="51" from="E24_25" to="E15_16" type="car" color="1,0,0"/>
    <trip id="trip_58" depart="53" from="E13_14" to="E14_15" type="car" color="1,0,0"/>
    <trip id="trip_59" depart="54" from="E4_5" to="E17_18" type="car" color="1,0,0"/>
    <trip id="trip_60" depart="54" from="E17_18" to="E23_24" type="car" color="1,0,0"/>
    <trip id="trip_61" depart="55" from="E3_4" to="E18_19" type="car" color="1,0,0"/>
    <trip id="trip_62" depart="56" from="E15_16" to="E17_18" type="car" color="1,0,0"/>
    <trip id="trip_63" depart="57" from="E22_23" to="E4_5" type="car" color="1,0,0"/>
    <trip id="trip_64" depart="57" from="E9_10" to="E3_4" type="car" color="1,0,0"/>
    <trip id="trip_65" depart="57" from="E20_21" to="E13_14" type="car" color="1,0,0"/>
    <trip id="trip_66" depart="58" from="E19_20" to="E12_13" type="car" color="1,0,0"/>
    <trip id="trip_67" depart="58" from="E13_14" to="E11_12" type="car" color="1,0,0"/>
    <trip id="trip_68" depart="58" from="E21_22" to="E18_19" type="car" color="1,0,0"/>
    <trip id="trip_69" depart="60" from="E4_5" to="E17_18" type="car" color="1,0,0"/>
    <trip id="trip_70" depart="63" from="E8_9" to="E4_5" type="car" color="1,0,0"/>
    <trip id="trip_71" depart="63" from="E10_11" to="E20_21" type="car" color="1,0,0"/>
    <trip id="trip_72" depart="65" from="E4_5" to="E13_14" type="car" color="1,0,0"/>
    <trip id="trip_73" depart="66" from="E20_21" to="E2_3" type="car" color="1,0,0"/>
    <trip id="trip_74" depart="66" from="E19_20" to="E14_15" type="car" color="1,0,0"/>
    <trip id="trip_75" depart="66" from="E21_22" to="E24_25" type="car" color="1,0,0"/>
    <trip id="trip_76" depart="68" from="E17_18" to="E15_16" type="car" color="1,0,0"/>
    <trip id="trip_77" depart="68" from="E5_6" to="E24_25" type="car" color="1,0,0"/>
    <trip id="trip_78" depart="68" from="E8_9" to="E9_10" type="car" color="1,0,0"/>
    <trip id="trip_79" depart="69" from="E7_8" to="E4_5" type="car" color="1,0,0"/>
    <trip id="trip_80" depart="70" from="E1_2" to="E3_4" type="car" color="1,0,0"/>
    <trip id="trip_81" depart="70" from="E19_20" to="E10_11" type="car" color="1,0,0"/>
    <trip id="trip_82" depart="70" from="E1_2" to="E7_8" type="car" color="1,0,0"/>
    <trip id="trip_83" depart="73" from="E9_10" to="E16_17" type="car" color="1,0,0"/>
    <trip id="trip_84" depart="73" from="E13_14" to="E5_6" type="car" color="1,0,0"/>
    <trip id="trip_85" depart="75" from="E2_3" to="E7_8" type="car" color="1,0,0"/>
    <trip id="trip_86" depart="75" from="E18_19" to="E9_10" type="car" color="1,0,0"/>
    <trip id="trip_87" depart="76" from="E10_11" to="E7_8" type="car" color="1,0,0"/>
    <trip id="trip_88" depart="78" from="E7_8" to="E6_7" type="car" color="1,0,0"/>
    <trip id="trip_89" depart="79" from="E20_21" to="E8_9" type="car" color="1,0,0"/>
    <trip id="trip_90" depart="80" from="E11_12" to="E7_8" type="car" color="1,0,0"/>
    <trip id="trip_91" depart="82" from="E4_5" to="E13_14" type="car" color="1,0,0"/>
    <trip id="trip_92" depart="82" from="E11_12" to="E19_20" type="car" color="1,0,0"/>
    <trip id="trip_93" depart="83" from="E15_16" to="E16_17" type="car" color="1,0,0"/>
    <trip id="trip_94" depart="84" from="E17_18" to="E10_11" type="car" color="1,0,0"/>
    <trip id="trip_95" depart="86" from="E14_15" to="E16_17" type="car" color="1,0,0"/>
    <trip id="trip_96" depart="86" from="E9_10" to="E1_2" type="car" color="1,0,0"/>
    <trip id="trip_97" depart="86" from="E6_7" to="E24_25" type="car" color="1,0,0"/>
    <trip id="trip_98" depart="86" from="E17_18" to="E15_16" type="car" color="1,0,0"/>
    <trip id="trip_99" depart="87" from="E10_11" to="E9_10" type="car" color="1,0,0"/>
    <trip id="trip_100" depart="88" from="E23_24" to="E19_20" type="car" color="1,0,0"/>
    <trip id="trip_101" depart="89" from="E17_18" to="E18_19" type="car" color="1,0,0"/>
    <trip id="trip_102" depart="89" from="E1_2" to="E8_9" type="car" color="1,0,0"/>
    <trip id="trip_103" depart="94" from="E18_19" to="E2_3" type="car" color="1,0,0"/>
    <trip id="trip_104" depart="95" from="E9_10" to="E1_2" type="car" color="1,0,0"/>
    <trip id="trip_105" depart="97" from="E21_22" to="E18_19" type="car" color="1,0,0"/>
    <trip id="trip_106" depart="98" from="E23_24" to="E21_22" type="car" color="1,0,0"/>
    <trip id="trip_107" depart="98" from="E2_3" to="E3_4" type="car" color="1,0,0"/>
    <trip id="trip_108" depart="98" from="E24_25" to="E23_24" type="car" color="1,0,0"/>
    <trip id="trip_109" depart="99" from="E18_19" to="E19_20" type="car" color="1,0,0"/>
    <trip id="trip_110" depart="99" from="E10_11" to="E4_5" type="car" color="1,0,0"/>
    <trip id="trip_111" depart="99" from="E6_7" to="E8_9" type="car" color="1,0,0"/>
    <trip id="trip_112" depart="101" from="E8_9" to="E19_20" type="car" color="1,0,0"/>
    <trip id="trip_113" depart="101" from="E11_12" to="E13_14" type="car" color="1,0,0"/>
    <trip id="trip_114" depart="102" from="E22_23" to="E2_3" type="car" color="1,0,0"/>
    <trip id="trip_115" depart="103" from="E17_18" to="E14_15" type="car" color="1,0,0"/>
    <trip id="trip_116" depart="103" from="E24_25" to="E5_6" type="car" color="1,0,0"/>
    <trip id="trip_117" depart="105" from="E12_13" to="E5_6" type="car" color="1,0,0"/>
    <trip id="trip_118" depart="106" from="E13_14" to="E21_22" type="car" color="1,0,0"/>
    <trip id="trip_119" depart="107" from="E1_2" to="E14_15" type="car" color="1,0,0"/>
    <trip id="trip_120" depart="108" from="E24_25" to="E22_23" type="car" color="1,0,0"/>
    <trip id="trip_121" depart="109" from="E18_19" to="E6_7" type="car" color="1,0,0"/>
    <trip id="trip_122" depart="110" from="E6_7" to="E11_12" type="car" color="1,0,0"/>
    <trip id="trip_123" depart="114" from="E20_21" to="E21_22" type="car" color="1,0,0"/>
    <trip id="trip_124" depart="114" from="E16_17" to="E5_6" type="car" color="1,0,0"/>
    <trip id="trip_125" depart="114" from="E10_11" to="E5_6" type="car" color="1,0,0"/>
    <trip id="trip_126" depart="116" from="E5_6" to="E11_12" type="car" color="1,0,0"/>
    <trip id="trip_127" depart="117" from="E24_25" to="E10_11" type="car" color="1,0,0"/>
    <trip id="trip_128" depart="117" from="E3_4" to="E20_21" type="car" color="1,0,0"/>
    <trip id="trip_129" depart="118" from="E17_18" to="E11_12" type="car" color="1,0,0"/>
    <trip id="trip_130" depart="121" from="E21_22" to="E24_25" type="car" color="1,0,0"/>
    <trip id="trip_131" depart="121" from="E18_19" to="E15_16" type="car" color="1,0,0"/>
    <trip id="trip_132" depart="123" from="E17_18" to="E8_9" type="car" color="1,0,0"/>
    <trip id="trip_133" depart="123" from="E10_11" to="E21_22" type="car" color="1,0,0"/>
    <trip id="trip_134" depart="123" from="E19_20" to="E4_5" type="car" color="1,0,0"/>
    <trip id="trip_135" depart="127" from="E4_5" to="E3_4" type="car" color="1,0,0"/>
    <trip id="trip_136" depart="129" from="E13_14" to="E15_16" type="car" color="1,0,0"/>
    <trip id="trip_137" depart="131" from="E13_14" to="E21_22" type="car" color="1,0,0"/>
    <trip id="trip_138" depart="132" from="E20_21" to="E22_23" type="car" color="1,0,0"/>
    <trip id="trip_139" depart="132" from="E22_23" to="E5_6" type="car" color="1,0,0"/>
    <trip id="trip_140" depart="134" from="E21_22" to="E12_13" type="car" color="1,0,0"/>
    <trip id="trip_141" depart="136" from="E19_20" to="E24_25" type="car" color="1,0,0"/>
    <trip id="trip_142" depart="136" from="E11_12" to="E2_3" type="car" color="1,0,0"/>
    <trip id="trip_143" depart="137" from="E17_18" to="E16_17" type="car" color="1,0,0"/>
    <trip id="trip_144" depart="137" from="E16_17" to="E14_15" type="car" color="1,0,0"/>
    <trip id="trip_145" depart="138" from="E17_18" to="E20_21" type="car" color="1,0,0"/>
    <trip id="trip_146" depart="139" from="E21_22" to="E15_16" type="car" color="1,0,0"/>
    <trip id="trip_147" depart="139" from="E17_18" to="E5_6" type="car" color="1,0,0"/>
    <trip id="trip_148" depart="139" from="E2_3" to="E19_20" type="car" color="1,0,0"/>
    <trip id="trip_149" depart="140" from="E23_24" to="E2_3" type="car" color="1,0,0"/>
    <trip id="trip_150" depart="140" from="E22_23" to="E9_10" type="car" color="1,0,0"/>
    <trip id="trip_151" depart="141" from="E22_23" to="E15_16" type="car" color="1,0,0"/>
    <trip id="trip_152" depart="142" from="E17_18" to="E5_6" type="car" color="1,0,0"/>
    <trip id="trip_153" depart="142" from="E24_25" to="E4_5" type="car" color="1,0,0"/>
    <trip id="trip_154" depart="142" from="E1_2" to="E11_12" type="car" color="1,0,0"/>
    <trip id="trip_155" depart="143" from="E8_9" to="E13_14" type="car" color="1,0,0"/>
    <trip id="trip_156" depart="144" from="E4_5" to="E11_12" type="car" color="1,0,0"/>
    <trip id="trip_157" depart="145" from="E8_9" to="E5_6" type="car" color="1,0,0"/>
    <trip id="trip_158" depart="145" from="E10_11" to="E22_23" type="car" color="1,0,0"/>
    <trip id="trip_159" depart="145" from="E4_5" to="E9_10" type="car" color="1,0,0"/>
    <trip id="trip_160" depart="148" from="E17_18" to="E2_3" type="car" color="1,0,0"/>
    <trip id="trip_161" depart="150" from="E19_20" to="E10_11" type="car" color="1,0,0"/>
    <trip id="trip_162" depart="150" from="E16_17" to="E2_3" type="car" color="1,0,0"/>
    <trip id="trip_163" depart="151" from="E20_21" to="E21_22" type="car" color="1,0,0"/>
    <trip id="trip_164" depart="154" from="E5_6" to="E4_5" type="car" color="1,0,0"/>
    <trip id="trip_165" depart="154" from="E14_15" to="E12_13" type="car" color="1,0,0"/>
    <trip id="trip_166" depart="154" from="E7_8" to="E4_5" type="car" color="1,0,0"/>
    <trip id="trip_167" depart="154" from="E13_14" to="E22_23" type="car" color="1,0,0"/>
    <trip id="trip_168" depart="155" from="E24_25" to="E2_3" type="car" color="1,0,0"/>
    <trip id="trip_169" depart="155" from="E13_14" to="E3_4" type="car" color="1,0,0"/>
    <trip id="trip_170" depart="156" from="E19_20" to="E12_13" type="car" color="1,0,0"/>
    <trip id="trip_171" depart="157" from="E10_11" to="E15_16" type="car" color="1,0,0"/>
    <trip id="trip_172" depart="157" from="E9_10" to="E12_13" type="car" color="1,0,0"/>
    <trip id="trip_173" depart="162" from="E7_8" to="E22_23" type="car" color="1,0,0"/>
    <trip id="trip_174" depart="164" from="E24_25" to="E18_19" type="car" color="1,0,0"/>
    <trip id="trip_175" depart="164" from="E3_4" to="E1_2" type="car" color="1,0,0"/>
    <trip id="trip_176" depart="166" from="E16_17" to="E17_18" type="car" color="1,0,0"/>
    <trip id="trip_177" depart="167" from="E24_25" to="E16_17" type="car" color="1,0,0"/>
    <trip id="trip_178" depart="168" from="E1_2" to="E16_17" type="car" color="1,0,0"/>
    <trip id="trip_179" depart="168" from="E3_4" to="E4_5" type="car" color="1,0,0"/>
    <trip id="trip_180" depart="168" from="E18_19" to="E7_8" type="car" color="1,0,0"/>
    <trip id="trip_181" depart="168" from="E20_21" to="E18_19" type="car" color="1,0,0"/>
    <trip id="trip_182" depart="170" from="E13_14" to="E9_10" type="car" color="1,0,0"/>
    <trip id="trip_183" depart="170" from="E2_3" to="E1_2" type="car" color="1,0,0"/>
    <trip id="trip_184" depart="171" from="E8_9" to="E22_23" type="car" color="1,0,0"/>
    <trip id="trip_185" depart="171" from="E7_8" to="E23_24" type="car" color="1,0,0"/>
    <trip id="trip_186" depart="172" from="E6_7" to="E15_16" type="car" color="1,0,0"/>
    <trip id="trip_187" depart="172" from="E13_14" to="E9_10" type="car" color="1,0,0"/>
    <trip id="trip_188" depart="173" from="E16_17" to="E5_6" type="car" color="1,0,0"/>
    <trip id="trip_189" depart="173" from="E24_25" to="E16_17" type="car" color="1,0,0"/>
    <trip id="trip_190" depart="173" from="E15_16" to="E1_2" type="car" color="1,0,0"/>
    <trip id="trip_191" depart="176" from="E19_20" to="E23_24" type="car" color="1,0,0"/>
    <trip id="trip_192" depart="176" from="E1_2" to="E23_24" type="car" color="1,0,0"/>
    <trip id="trip_193" depart="176" from="E3_4" to="E7_8" type="car" color="1,0,0"/>
    <trip id="trip_194" depart="180" from="E4_5" to="E22_23" type="car" color="1,0,0"/>
    <trip id="trip_195" depart="180" from="E12_13" to="E6_7" type="car" color="1,0,0"/>
    <trip id="trip_196" depart="181" from="E13_14" to="E21_22" type="car" color="1,0,0"/>
    <trip id="trip_197" depart="181" from="E20_21" to="E16_17" type="car" color="1,0,0"/>
    <trip id="trip_198" depart="182" from="E6_7" to="E12_13" type="car" color="1,0,0"/>
    <trip id="trip_199" depart="186" from="E20_21" to="E23_24" type="car" color="1,0,0"/>
    <trip id="trip_200" depart="187" from="E4_5" to="E3_4" type="car" color="1,0,0"/>
    <trip id="trip_201" depart="190" from="E14_15" to="E23_24" type="car" color="1,0,0"/>
    <trip id="trip_202" depart="190" from="E20_21" to="E21_22" type="car" color="1,0,0"/>
    <trip id="trip_203" depart="190" from="E4_5" to="E9_10" type="car" color="1,0,0"/>
    <trip id="trip_204" depart="191" from="E3_4" to="E9_10" type="car" color="1,0,0"/>
    <trip id="trip_205" depart="191" from="E9_10" to="E19_20" type="car" color="1,0,0"/>
    <trip id="trip_206" depart="191" from="E1_2" to="E18_19" type="car" color="1,0,0"/>
    <trip id="trip_207" depart="192" from="E13_14" to="E15_16" type="car" color="1,0,0"/>
    <trip id="trip_208" depart="195" from="E21_22" to="E17_18" type="car" color="1,0,0"/>
    <trip id="trip_209" depart="197" from="E8_9" to="E4_5" type="car" color="1,0,0"/>
    <trip id="trip_210" depart="198" from="E2_3" to="E10_11" type="car" color="1,0,0"/>
    <trip id="trip_211" depart="199" from="E2_3" to="E12_13" type="car" color="1,0,0"/>
    <trip id="trip_212" depart="202" from="E14_15" to="E16_17" type="car" color="1,0,0"/>
    <trip id="trip_213" depart="203" from="E21_22" to="E5_6" type="car" color="1,0,0"/>
    <trip id="trip_214" depart="204" from="E15_16" to="E12_13" type="car" color="1,0,0"/>
    <trip id="trip_215" depart="205" from="E11_12" to="E15_16" type="car" color="1,0,0"/>
    <trip id="trip_216" depart="206" from="E5_6" to="E8_9" type="car" color="1,0,0"/>
    <trip id="trip_217" depart="206" from="E17_18" to="E1_2" type="car" color="1,0,0"/>
    <trip id="trip_218" depart="207" from="E20_21" to="E6_7" type="car" color="1,0,0"/>
    <trip id="trip_219" depart="210" from="E19_20" to="E1_2" type="car" color="1,0,0"/>
    <trip id="trip_220" depart="210" from="E13_14" to="E6_7" type="car" color="1,0,0"/>
    <trip id="trip_221" depart="210" from="E24_25" to="E14_15" type="car" color="1,0,0"/>
    <trip id="trip_222" depart="211" from="E13_14" to="E8_9" type="car" color="1,0,0"/>
    <trip id="trip_223" depart="212" from="E8_9" to="E24_25" type="car" color="1,0,0"/>
    <trip id="trip_224" depart="212" from="E17_18" to="E7_8" type="car" color="1,0,0"/>
    <trip id="trip_225" depart="213" from="E1_2" to="E7_8" type="car" color="1,0,0"/>
    <trip id="trip_226" depart="215" from="E19_20" to="E5_6" type="car" color="1,0,0"/>
    <trip id="trip_227" depart="215" from="E21_22" to="E24_25" type="car" color="1,0,0"/>
    <trip id="trip_228" depart="217" from="E13_14" to="E5_6" type="car" color="1,0,0"/>
    <trip id="trip_229" depart="218" from="E22_23" to="E9_10" type="car" color="1,0,0"/>
    <trip id="trip_230" depart="219" from="E1_2" to="E4_5" type="car" color="1,0,0"/>
    <trip id="trip_231" depart="221" from="E11_12" to="E15_16" type="car" color="1,0,0"/>
    <trip id="trip_232" depart="221" from="E20_21" to="E19_20" type="car" color="1,0,0"/>
    <trip id="trip_233" depart="221" from="E6_7" to="E22_23" type="car" color="1,0,0"/>
    <trip id="trip_234" depart="225" from="E1_2" to="E14_15" type="car" color="1,0,0"/>
    <trip id="trip_235" depart="226" from="E10_11" to="E15_16" type="car" color="1,0,0"/>
    <trip id="trip_236" depart="227" from="E21_22" to="E22_23" type="car" color="1,0,0"/>
    <trip id="trip_237" depart="227" from="E5_6" to="E13_14" type="car" color="1,0,0"/>
    <trip id="trip_238" depart="227" from="E24_25" to="E11_12" type="car" color="1,0,0"/>
    <trip id="trip_239" depart="228" from="E12_13" to="E2_3" type="car" color="1,0,0"/>
    <trip id="trip_240" depart="228" from="E20_21" to="E1_2" type="car" color="1,0,0"/>
    <trip id="trip_241" depart="229" from="E5_6" to="E21_22" type="car" color="1,0,0"/>
    <trip id="trip_242" depart="230" from="E13_14" to="E22_23" type="car" color="1,0,0"/>
    <trip id="trip_243" depart="230" from="E7_8" to="E20_21" type="car" color="1,0,0"/>
    <trip id="trip_244" depart="231" from="E15_16" to="E14_15" type="car" color="1,0,0"/>
    <trip id="trip_245" depart="232" from="E11_12" to="E16_17" type="car" color="1,0,0"/>
    <trip id="trip_246" depart="233" from="E2_3" to="E23_24" type="car" color="1,0,0"/>
    <trip id="trip_247" depart="234" from="E7_8" to="E11_12" type="car" color="1,0,0"/>
    <trip id="trip_248" depart="234" from="E5_6" to="E24_25" type="car" color="1,0,0"/>
    <trip id="trip_249" depart="238" from="E18_19" to="E17_18" type="car" color="1,0,0"/>
    <trip id="trip_250" depart="238" from="E15_16" to="E5_6" type="car" color="1,0,0"/>
    <trip id="trip_251" depart="240" from="E4_5" to="E22_23" type="car" color="1,0,0"/>
    <trip id="trip_252" depart="242" from="E15_16" to="E6_7" type="car" color="1,0,0"/>
    <trip id="trip_253" depart="242" from="E22_23" to="E13_14" type="car" color="1,0,0"/>
    <trip id="trip_254" depart="243" from="E22_23" to="E9_10" type="car" color="1,0,0"/>
    <trip id="trip_255" depart="244" from="E12_13" to="E14_15" type="car" color="1,0,0"/>
    <trip id="trip_256" depart="245" from="E23_24" to="E6_7" type="car" color="1,0,0"/>
    <trip id="trip_257" depart="250" from="E14_15" to="E8_9" type="car" color="1,0,0"/>
    <trip id="trip_258" depart="251" from="E13_14" to="E3_4" type="car" color="1,0,0"/>
    <trip id="trip_259" depart="251" from="E5_6" to="E23_24" type="car" color="1,0,0"/>
    <trip id="trip_260" depart="253" from="E10_11" to="E16_17" type="car" color="1,0,0"/>
    <trip id="trip_261" depart="254" from="E19_20" to="E18_19" type="car" color="1,0,0"/>
    <trip id="trip_262" depart="255" from="E4_5" to="E13_14" type="car" color="1,0,0"/>
    <trip id="trip_263" depart="257" from="E23_24" to="E20_21" type="car" color="1,0,0"/>
    <trip id="trip_264" depart="259" from="E17_18" to="E8_9" type="car" color="1,0,0"/>
    <trip id="trip_265" depart="259" from="E18_19" to="E17_18" type="car" color="1,0,0"/>
    <trip id="trip_266" depart="259" from="E15_16" to="E2_3" type="car" color="1,0,0"/>
    <trip id="trip_267" depart="260" from="E23_24" to="E10_11" type="car" color="1,0,0"/>
    <trip id="trip_268" depart="260" from="E4_5" to="E16_17" type="car" color="1,0,0"/>
    <trip id="trip_269" depart="262" from="E16_17" to="E12_13" type="car" color="1,0,0"/>
    <trip id="trip_270" depart="262" from="E6_7" to="E2_3" type="car" color="1,0,0"/>
    <trip id="trip_271" depart="262" from="E1_2" to="E4_5" type="car" color="1,0,0"/>
    <trip id="trip_272" depart="263" from="E10_11" to="E19_20" type="car" color="1,0,0"/>
    <trip id="trip_273" depart="264" from="E5_6" to="E21_22" type="car" color="1,0,0"/>
    <trip id="trip_274" depart="264" from="E10_11" to="E9_10" type="car" color="1,0,0"/>
    <trip id="trip_275" depart="270" from="E7_8" to="E16_17" type="car" color="1,0,0"/>
    <trip id="trip_276" depart="271" from="E15_16" to="E17_18" type="car" color="1,0,0"/>
    <trip id="trip_277" depart="272" from="E7_8" to="E14_15" type="car" color="1,0,0"/>
    <trip id="trip_278" depart="272" from="E21_22" to="E4_5" type="car" color="1,0,0"/>
    <trip id="trip_279" depart="273" from="E18_19" to="E21_22" type="car" color="1,0,0"/>
    <trip id="trip_280" depart="273" from="E11_12" to="E22_23" type="car" color="1,0,0"/>
    <trip id="trip_281" depart="273" from="E17_18" to="E24_25" type="car" color="1,0,0"/>
    <trip id="trip_282" depart="278" from="E13_14" to="E9_10" type="car" color="1,0,0"/>
    <trip id="trip_283" depart="279" from="E18_19" to="E14_15" type="car" color="1,0,0"/>
    <trip id="trip_284" depart="280" from="E18_19" to="E5_6" type="car" color="1,0,0"/>
    <trip id="trip_285" depart="280" from="E9_10" to="E15_16" type="car" color="1,0,0"/>
    <trip id="trip_286" depart="281" from="E3_4" to="E2_3" type="car" color="1,0,0"/>
    <trip id="trip_287" depart="282" from="E4_5" to="E16_17" type="car" color="1,0,0"/>
    <trip id="trip_288" depart="282" from="E22_23" to="E2_3" type="car" color="1,0,0"/>
    <trip id="trip_289" depart="283" from="E10_11" to="E17_18" type="car" color="1,0,0"/>
    <trip id="trip_290" depart="283" from="E11_12" to="E20_21" type="car" color="1,0,0"/>
    <trip id="trip_291" depart="285" from="E2_3" to="E19_20" type="car" color="1,0,0"/>
    <trip id="trip_292" depart="286" from="E12_13" to="E20_21" type="car" color="1,0,0"/>
    <trip id="trip_293" depart="287" from="E11_12" to="E18_19" type="car" color="1,0,0"/>
    <trip id="trip_294" depart="287" from="E22_23" to="E1_2" type="car" color="1,0,0"/>
    <trip id="trip_295" depart="288" from="E9_10" to="E13_14" type="car" color="1,0,0"/>
    <trip id="trip_296" depart="288" from="E15_16" to="E11_12" type="car" color="1,0,0"/>
    <trip id="trip_297" depart="288" from="E18_19" to="E13_14" type="car" color="1,0,0"/>
    <trip id="trip_298" depart="288" from="E22_23" to="E11_12" type="car" color="1,0,0"/>
    <trip id="trip_299" depart="289" from="E8_9" to="E5_6" type="car" color="1,0,0"/>
    <trip id="trip_300" depart="291" from="E17_18" to="E4_5" type="car" color="1,0,0"/>
    <trip id="trip_301" depart="292" from="E8_9" to="E23_24" type="car" color="1,0,0"/>
    <trip id="trip_302" depart="293" from="E6_7" to="E14_15" type="car" color="1,0,0"/>
    <trip id="trip_303" depart="294" from="E15_16" to="E6_7" type="car" color="1,0,0"/>
    <trip id="trip_304" depart="299" from="E2_3" to="E16_17" type="car" color="1,0,0"/>
    <trip id="trip_305" depart="301" from="E9_10" to="E11_12" type="car" color="1,0,0"/>
    <trip id="trip_306" depart="304" from="E4_5" to="E18_19" type="car" color="1,0,0"/>
    <trip id="trip_307" depart="306" from="E4_5" to="E20_21" type="car" color="1,0,0"/>
    <trip id="trip_308" depart="306" from="E12_13" to="E3_4" type="car" color="1,0,0"/>
    <trip id="trip_309" depart="308" from="E5_6" to="E14_15" type="car" color="1,0,0"/>
    <trip id="trip_310" depart="308" from="E22_23" to="E24_25" type="car" color="1,0,0"/>
    <trip id="trip_311" depart="309" from="E16_17" to="E5_6" type="car" color="1,0,0"/>
    <trip id="trip_312" depart="309" from="E7_8" to="E10_11" type="car" color="1,0,0"/>
    <trip id="trip_313" depart="309" from="E21_22" to="E12_13" type="car" color="1,0,0"/>
    <trip id="trip_314" depart="311" from="E13_14" to="E20_21" type="car" color="1,0,0"/>
    <trip id="trip_315" depart="313" from="E3_4" to="E1_2" type="car" color="1,0,0"/>
    <trip id="trip_316" depart="313" from="E18_19" to="E9_10" type="car" color="1,0,0"/>
    <trip id="trip_317" depart="314" from="E15_16" to="E7_8" type="car" color="1,0,0"/>
    <trip id="trip_318" depart="314" from="E17_18" to="E2_3" type="car" color="1,0,0"/>
    <trip id="trip_319" depart="317" from="E21_22" to="E3_4" type="car" color="1,0,0"/>
    <trip id="trip_320" depart="317" from="E14_15" to="E8_9" type="car" color="1,0,0"/>
    <trip id="trip_321" depart="317" from="E18_19" to="E7_8" type="car" color="1,0,0"/>
    <trip id="trip_322" depart="319" from="E17_18" to="E5_6" type="car" color="1,0,0"/>
    <trip id="trip_323" depart="319" from="E6_7" to="E5_6" type="car" color="1,0,0"/>
    <trip id="trip_324" depart="319" from="E17_18" to="E21_22" type="car" color="1,0,0"/>
    <trip id="trip_325" depart="320" from="E23_24" to="E9_10" type="car" color="1,0,0"/>
    <trip id="trip_326" depart="321" from="E16_17" to="E24_25" type="car" color="1,0,0"/>
    <trip id="trip_327" depart="322" from="E9_10" to="E11_12" type="car" color="1,0,0"/>
    <trip id="trip_328" depart="322" from="E17_18" to="E8_9" type="car" color="1,0,0"/>
    <trip id="trip_329" depart="322" from="E1_2" to="E11_12" type="car" color="1,0,0"/>
    <trip id="trip_330" depart="322" from="E13_14" to="E8_9" type="car" color="1,0,0"/>
    <trip id="trip_331" depart="322" from="E13_14" to="E6_7" type="car" color="1,0,0"/>
    <trip id="trip_332" depart="322" from="E4_5" to="E17_18" type="car" color="1,0,0"/>
    <trip id="trip_333" depart="323" from="E8_9" to="E5_6" type="car" color="1,0,0"/>
    <trip id="trip_334" depart="324" from="E3_4" to="E15_16" type="car" color="1,0,0"/>
    <trip id="trip_335" depart="324" from="E13_14" to="E7_8" type="car" color="1,0,0"/>
    <trip id="trip_336" depart="324" from="E9_10" to="E13_14" type="car" color="1,0,0"/>