<?xml version="1.0" encoding="UTF-8"?>

<!-- generated on 2025-12-19T18:25:57.341726+03:30 by Eclipse SUMO netedit 1.25.0
<neteditConfiguration xmlns:xsi="http://www.w3.org/2001/XMLSchema-instance" xsi:noNamespaceSchemaLocation="http://sumo.dlr.de/xsd/neteditConfiguration.xsd">

    <input>
        <sumo-net-file value="/home/keivan/Desktop/test.net.xml"/>
    </input>

    <output>
        <output-file value="/home/keivan/Desktop/test.net.xml"/>
    </output>

    <processing>
        <offset.disable-normalization value="true"/>
    </processing>

    <junctions>
        <no-turnarounds value="true"/>
    </junctions>

    <netedit>
        <new-network value="false"/>
    </netedit>

</neteditConfiguration>
-->

<net version="1.20" junctionCornerDetail="5" limitTurnSpeed="5.50" xmlns:xsi="http://www.w3.org/2001/XMLSchema-instance" xsi:noNamespaceSchemaLocation="http://sumo.dlr.de/xsd/net_file.xsd">

    <location netOffset="0.00,0.00" convBoundary="-64.65,-27.21,26.16,29.30" origBoundary="10000000000.00,10000000000.00,-10000000000.00,-10000000000.00" projParameter="!"/>

    <edge id=":J0_0" function="internal">
        <lane id=":J0_0_0" index="0" speed="3.90" length="2.66" shape="-62.88,25.02 -62.81,25.75 -62.53,26.27 -62.02,26.59 -61.30,26.70"/>
    </edge>
    <edge id=":J1_0" function="internal">
        <lane id=":J1_0_0" index="0" speed="3.91" length="2.50" shape="20.32,27.66 21.00,27.58 21.49,27.29 21.80,26.82 21.94,26.15"/>
    </edge>
    <edge id=":J2_0" function="internal">
        <lane id=":J2_0_0" index="0" speed="3.90" length="2.60" shape="24.39,-20.12 24.33,-20.83 24.05,-21.35 23.56,-21.67 22.87,-21.81"/>
    </edge>
    <edge id=":J3_0" function="internal">
        <lane id=":J3_0_0" index="0" speed="3.90" length="2.57" shape="-58.64,-25.47 -59.34,-25.40 -59.85,-25.13 -60.17,-24.64 -60.31,-23.95"/>
    </edge>

    <edge id="E0" from="J0" to="J1" priority="-1">
        <lane id="E0_0" index="0" speed="13.89" length="81.62" shape="-61.30,26.70 20.32,27.66"/>
    </edge>
    <edge id="E1" from="J1" to="J2" priority="-1">
        <lane id="E1_0" index="0" speed="13.89" length="46.34" shape="21.94,26.15 24.39,-20.12"/>
    </edge>
    <edge id="E2" from="J2" to="J3" priority="-1">
        <lane id="E2_0" index="0" speed="13.89" length="81.59" shape="22.87,-21.81 -58.64,-25.47"/>
    </edge>
    <edge id="E3" from="J3" to="J0" priority="-1">
        <lane id="E3_0" index="0" speed="13.89" length="49.04" shape="-60.31,-23.95 -62.88,25.02"/>
    </edge>

    <junction id="J0" type="priority" x="-64.65" y="28.26" incLanes="E3_0" intLanes=":J0_0_0" shape="-61.32,28.30 -61.28,25.10 -64.48,24.93 -64.20,26.79 -63.77,27.44 -63.15,27.91 -62.33,28.19">
        <request index="0" response="0" foes="0" cont="0"/>
    </junction>
    <junction id="J1" type="priority" x="23.37" y="29.30" incLanes="E0_0" intLanes=":J1_0_0" shape="23.53,26.23 20.34,26.06 20.30,29.26 22.02,28.94 22.64,28.52 23.10,27.93 23.40,27.17">
        <request index="0" response="0" foes="0" cont="0"/>
    </junction>
    <junction id="J2" type="priority" x="26.16" y="-23.26" incLanes="E1_0" intLanes=":J2_0_0" shape="22.94,-23.40 22.79,-20.21 25.99,-20.04 25.73,-21.84 25.31,-22.49 24.71,-22.97 23.92,-23.27">
        <request index="0" response="0" foes="0" cont="0"/>
    </junction>
    <junction id="J3" type="priority" x="-61.74" y="-27.21" incLanes="E2_0" intLanes=":J3_0_0" shape="-58.71,-23.87 -58.57,-27.07 -60.35,-26.79 -60.99,-26.38 -61.46,-25.78 -61.77,-25.00 -61.91,-24.04">
        <request index="0" response="0" foes="0" cont="0"/>
    </junction>

    <connection from="E0" to="E1" fromLane="0" toLane="0" via=":J1_0_0" dir="r" state="M"/>
    <connection from="E1" to="E2" fromLane="0" toLane="0" via=":J2_0_0" dir="r" state="M"/>
    <connection from="E2" to="E3" fromLane="0" toLane="0" via=":J3_0_0" dir="r" state="M"/>
    <connection from="E3" to="E0" fromLane="0" toLane="0" via=":J0_0_0" dir="r" state="M"/>

    <connection from=":J0_0" to="E0" fromLane="0" toLane="0" dir="r" state="M"/>
    <connection from=":J1_0" to="E1" fromLane="0" toLane="0" dir="r" state="M"/>
    <connection from=":J2_0" to="E2" fromLane="0" toLane="0" dir="r" state="M"/>
    <connection from=":J3_0" to="E3" fromLane="0" toLane="0" dir="r" state="M"/>

</net>
