<?xml version="1.0" encoding="UTF-8"?>

<!-- generated on 2024-11-28 19:57:42 by Eclipse SUMO netedit Version 1.21.0
<neteditConfiguration xmlns:xsi="http://www.w3.org/2001/XMLSchema-instance" xsi:noNamespaceSchemaLocation="http://sumo.dlr.de/xsd/neteditConfiguration.xsd">

    <input>
        <sumo-net-file value="D:\All Python\Pure-Python\P4\03-Advanced transportation\SUMO\P1\HelloWorld_KeivanJamali2.net.xml"/>
    </input>

    <output>
        <output-file value="D:\All Python\Pure-Python\P4\03-Advanced transportation\SUMO\P1\HelloWorld_KeivanJamali2.net.xml"/>
    </output>

    <processing>
        <offset.disable-normalization value="true"/>
    </processing>

    <junctions>
        <no-turnarounds value="true"/>
    </junctions>

    <netedit>
        <new-network value="false"/>
    </netedit>

</neteditConfiguration>
-->

<net version="1.20" junctionCornerDetail="5" limitTurnSpeed="5.50" xmlns:xsi="http://www.w3.org/2001/XMLSchema-instance" xsi:noNamespaceSchemaLocation="http://sumo.dlr.de/xsd/net_file.xsd">

    <location netOffset="0.00,0.00" convBoundary="-2200.00,-2000.00,800.00,1200.00" origBoundary="10000000000.00,10000000000.00,-10000000000.00,-10000000000.00" projParameter="!"/>

    <edge id=":J0_0" function="internal">
        <lane id=":J0_0_0" index="0" speed="8.96" length="18.06" shape="-2193.60,1204.80 -2198.50,1204.10 -2202.00,1202.00 -2204.10,1198.50 -2204.80,1193.60"/>
        <lane id=":J0_0_1" index="1" speed="7.66" length="12.90" shape="-2193.60,1201.60 -2197.10,1201.10 -2199.60,1199.60 -2201.10,1197.10 -2201.60,1193.60"/>
    </edge>
    <edge id=":J0_2" function="internal">
        <lane id=":J0_2_0" index="0" speed="3.90" length="2.58" shape="-2195.20,1193.60 -2195.10,1194.30 -2194.80,1194.80 -2194.30,1195.10 -2193.60,1195.20"/>
        <lane id=":J0_2_1" index="1" speed="6.08" length="7.74" shape="-2198.40,1193.60 -2198.10,1195.70 -2197.20,1197.20 -2195.70,1198.10 -2193.60,1198.40"/>
    </edge>
    <edge id=":J1_0" function="internal">
        <lane id=":J1_0_0" index="0" speed="8.96" length="18.06" shape="4.80,1193.60 4.10,1198.50 2.00,1202.00 -1.50,1204.10 -6.40,1204.80"/>
        <lane id=":J1_0_1" index="1" speed="7.66" length="12.90" shape="1.60,1193.60 1.10,1197.10 -0.40,1199.60 -2.90,1201.10 -6.40,1201.60"/>
    </edge>
    <edge id=":J1_2" function="internal">
        <lane id=":J1_2_0" index="0" speed="3.90" length="2.58" shape="-6.40,1195.20 -5.70,1195.10 -5.20,1194.80 -4.90,1194.30 -4.80,1193.60"/>
        <lane id=":J1_2_1" index="1" speed="6.08" length="7.74" shape="-6.40,1198.40 -4.30,1198.10 -2.80,1197.20 -1.90,1195.70 -1.60,1193.60"/>
    </edge>
    <edge id=":J10_0" function="internal">
        <lane id=":J10_0_0" index="0" speed="6.51" length="9.03" shape="-1604.80,-189.60 -1605.15,-192.05 -1606.20,-193.80 -1607.95,-194.85 -1610.40,-195.20"/>
    </edge>
    <edge id=":J10_1" function="internal">
        <lane id=":J10_1_0" index="0" speed="16.67" length="20.80" shape="-1604.80,-189.60 -1604.80,-210.40"/>
        <lane id=":J10_1_1" index="1" speed="16.67" length="20.80" shape="-1601.60,-189.60 -1601.60,-210.40"/>
    </edge>
    <edge id=":J10_3" function="internal">
        <lane id=":J10_3_0" index="0" speed="9.26" length="5.01" shape="-1601.60,-189.60 -1600.89,-194.56"/>
    </edge>
    <edge id=":J10_16" function="internal">
        <lane id=":J10_16_0" index="0" speed="9.26" length="14.34" shape="-1600.89,-194.56 -1600.85,-194.85 -1598.60,-198.60 -1594.85,-200.85 -1589.60,-201.60"/>
    </edge>
    <edge id=":J10_4" function="internal">
        <lane id=":J10_4_0" index="0" speed="6.51" length="9.03" shape="-1589.60,-195.20 -1592.05,-194.85 -1593.80,-193.80 -1594.85,-192.05 -1595.20,-189.60"/>
    </edge>
    <edge id=":J10_5" function="internal">
        <lane id=":J10_5_0" index="0" speed="16.67" length="20.80" shape="-1589.60,-195.20 -1610.40,-195.20"/>
        <lane id=":J10_5_1" index="1" speed="16.67" length="20.80" shape="-1589.60,-198.40 -1610.40,-198.40"/>
    </edge>
    <edge id=":J10_7" function="internal">
        <lane id=":J10_7_0" index="0" speed="9.26" length="19.35" shape="-1589.60,-198.40 -1594.85,-199.15 -1598.60,-201.40 -1600.85,-205.15 -1601.60,-210.40"/>
    </edge>
    <edge id=":J10_8" function="internal">
        <lane id=":J10_8_0" index="0" speed="6.51" length="9.03" shape="-1595.20,-210.40 -1594.85,-207.95 -1593.80,-206.20 -1592.05,-205.15 -1589.60,-204.80"/>
    </edge>
    <edge id=":J10_9" function="internal">
        <lane id=":J10_9_0" index="0" speed="16.67" length="20.80" shape="-1595.20,-210.40 -1595.20,-189.60"/>
        <lane id=":J10_9_1" index="1" speed="16.67" length="20.80" shape="-1598.40,-210.40 -1598.40,-189.60"/>
    </edge>
    <edge id=":J10_11" function="internal">
        <lane id=":J10_11_0" index="0" speed="9.26" length="5.01" shape="-1598.40,-210.40 -1599.11,-205.44"/>
    </edge>
    <edge id=":J10_17" function="internal">
        <lane id=":J10_17_0" index="0" speed="9.26" length="14.34" shape="-1599.11,-205.44 -1599.15,-205.15 -1601.40,-201.40 -1605.15,-199.15 -1610.40,-198.40"/>
    </edge>
    <edge id=":J10_12" function="internal">
        <lane id=":J10_12_0" index="0" speed="6.51" length="9.03" shape="-1610.40,-204.80 -1607.95,-205.15 -1606.20,-206.20 -1605.15,-207.95 -1604.80,-210.40"/>
    </edge>
    <edge id=":J10_13" function="internal">
        <lane id=":J10_13_0" index="0" speed="16.67" length="20.80" shape="-1610.40,-204.80 -1589.60,-204.80"/>
        <lane id=":J10_13_1" index="1" speed="16.67" length="20.80" shape="-1610.40,-201.60 -1589.60,-201.60"/>
    </edge>
    <edge id=":J10_15" function="internal">
        <lane id=":J10_15_0" index="0" speed="9.26" length="19.35" shape="-1610.40,-201.60 -1605.15,-200.85 -1601.40,-198.60 -1599.15,-194.85 -1598.40,-189.60"/>
    </edge>
    <edge id=":J11_0" function="internal">
        <lane id=":J11_0_0" index="0" speed="16.67" length="20.80" shape="-2204.80,-189.60 -2204.80,-210.40"/>
        <lane id=":J11_0_1" index="1" speed="16.67" length="20.80" shape="-2201.60,-189.60 -2201.60,-210.40"/>
    </edge>
    <edge id=":J11_2" function="internal">
        <lane id=":J11_2_0" index="0" speed="9.26" length="5.01" shape="-2201.60,-189.60 -2200.89,-194.56"/>
    </edge>
    <edge id=":J11_8" function="internal">
        <lane id=":J11_8_0" index="0" speed="9.26" length="14.34" shape="-2200.89,-194.56 -2200.85,-194.85 -2198.60,-198.60 -2194.85,-200.85 -2189.60,-201.60"/>
    </edge>
    <edge id=":J11_3" function="internal">
        <lane id=":J11_3_0" index="0" speed="6.51" length="9.03" shape="-2189.60,-195.20 -2192.05,-194.85 -2193.80,-193.80 -2194.85,-192.05 -2195.20,-189.60"/>
    </edge>
    <edge id=":J11_4" function="internal">
        <lane id=":J11_4_0" index="0" speed="9.26" length="19.35" shape="-2189.60,-198.40 -2194.85,-199.15 -2198.60,-201.40 -2200.85,-205.15 -2201.60,-210.40"/>
    </edge>
    <edge id=":J11_5" function="internal">
        <lane id=":J11_5_0" index="0" speed="6.51" length="9.03" shape="-2195.20,-210.40 -2194.85,-207.95 -2193.80,-206.20 -2192.05,-205.15 -2189.60,-204.80"/>
    </edge>
    <edge id=":J11_6" function="internal">
        <lane id=":J11_6_0" index="0" speed="16.67" length="20.80" shape="-2195.20,-210.40 -2195.20,-189.60"/>
        <lane id=":J11_6_1" index="1" speed="16.67" length="20.80" shape="-2198.40,-210.40 -2198.40,-189.60"/>
    </edge>
    <edge id=":J12_0" function="internal">
        <lane id=":J12_0_0" index="0" speed="8.96" length="18.06" shape="-2204.80,-1993.60 -2204.10,-1998.50 -2202.00,-2002.00 -2198.50,-2004.10 -2193.60,-2004.80"/>
        <lane id=":J12_0_1" index="1" speed="7.66" length="12.90" shape="-2201.60,-1993.60 -2201.10,-1997.10 -2199.60,-1999.60 -2197.10,-2001.10 -2193.60,-2001.60"/>
    </edge>
    <edge id=":J12_2" function="internal">
        <lane id=":J12_2_0" index="0" speed="3.90" length="2.58" shape="-2193.60,-1995.20 -2194.30,-1995.10 -2194.80,-1994.80 -2195.10,-1994.30 -2195.20,-1993.60"/>
        <lane id=":J12_2_1" index="1" speed="6.08" length="7.74" shape="-2193.60,-1998.40 -2195.70,-1998.10 -2197.20,-1997.20 -2198.10,-1995.70 -2198.40,-1993.60"/>
    </edge>
    <edge id=":J13_0" function="internal">
        <lane id=":J13_0_0" index="0" speed="16.67" length="20.80" shape="-1604.80,-989.60 -1604.80,-1010.40"/>
        <lane id=":J13_0_1" index="1" speed="16.67" length="20.80" shape="-1601.60,-989.60 -1601.60,-1010.40"/>
    </edge>
    <edge id=":J13_2" function="internal">
        <lane id=":J13_2_0" index="0" speed="9.26" length="5.01" shape="-1601.60,-989.60 -1600.89,-994.56"/>
    </edge>
    <edge id=":J13_8" function="internal">
        <lane id=":J13_8_0" index="0" speed="9.26" length="14.34" shape="-1600.89,-994.56 -1600.85,-994.85 -1598.60,-998.60 -1594.85,-1000.85 -1589.60,-1001.60"/>
    </edge>
    <edge id=":J13_3" function="internal">
        <lane id=":J13_3_0" index="0" speed="6.51" length="9.03" shape="-1589.60,-995.20 -1592.05,-994.85 -1593.80,-993.80 -1594.85,-992.05 -1595.20,-989.60"/>
    </edge>
    <edge id=":J13_4" function="internal">
        <lane id=":J13_4_0" index="0" speed="9.26" length="19.35" shape="-1589.60,-998.40 -1594.85,-999.15 -1598.60,-1001.40 -1600.85,-1005.15 -1601.60,-1010.40"/>
    </edge>
    <edge id=":J13_5" function="internal">
        <lane id=":J13_5_0" index="0" speed="6.51" length="9.03" shape="-1595.20,-1010.40 -1594.85,-1007.95 -1593.80,-1006.20 -1592.05,-1005.15 -1589.60,-1004.80"/>
    </edge>
    <edge id=":J13_6" function="internal">
        <lane id=":J13_6_0" index="0" speed="16.67" length="20.80" shape="-1595.20,-1010.40 -1595.20,-989.60"/>
        <lane id=":J13_6_1" index="1" speed="16.67" length="20.80" shape="-1598.40,-1010.40 -1598.40,-989.60"/>
    </edge>
    <edge id=":J14_0" function="internal">
        <lane id=":J14_0_0" index="0" speed="16.67" length="20.80" shape="-789.60,-995.20 -810.40,-995.20"/>
        <lane id=":J14_0_1" index="1" speed="16.67" length="20.80" shape="-789.60,-998.40 -810.40,-998.40"/>
    </edge>
    <edge id=":J14_2" function="internal">
        <lane id=":J14_2_0" index="0" speed="9.26" length="5.01" shape="-789.60,-998.40 -794.56,-999.11"/>
    </edge>
    <edge id=":J14_8" function="internal">
        <lane id=":J14_8_0" index="0" speed="9.26" length="14.34" shape="-794.56,-999.11 -794.85,-999.15 -798.60,-1001.40 -800.85,-1005.15 -801.60,-1010.40"/>
    </edge>
    <edge id=":J14_3" function="internal">
        <lane id=":J14_3_0" index="0" speed="6.51" length="9.03" shape="-795.20,-1010.40 -794.85,-1007.95 -793.80,-1006.20 -792.05,-1005.15 -789.60,-1004.80"/>
    </edge>
    <edge id=":J14_4" function="internal">
        <lane id=":J14_4_0" index="0" speed="9.26" length="19.35" shape="-798.40,-1010.40 -799.15,-1005.15 -801.40,-1001.40 -805.15,-999.15 -810.40,-998.40"/>
    </edge>
    <edge id=":J14_5" function="internal">
        <lane id=":J14_5_0" index="0" speed="6.51" length="9.03" shape="-810.40,-1004.80 -807.95,-1005.15 -806.20,-1006.20 -805.15,-1007.95 -804.80,-1010.40"/>
    </edge>
    <edge id=":J14_6" function="internal">
        <lane id=":J14_6_0" index="0" speed="16.67" length="20.80" shape="-810.40,-1004.80 -789.60,-1004.80"/>
        <lane id=":J14_6_1" index="1" speed="16.67" length="20.80" shape="-810.40,-1001.60 -789.60,-1001.60"/>
    </edge>
    <edge id=":J15_0" function="internal">
        <lane id=":J15_0_0" index="0" speed="6.51" length="9.03" shape="-4.80,-189.60 -5.15,-192.05 -6.20,-193.80 -7.95,-194.85 -10.40,-195.20"/>
    </edge>
    <edge id=":J15_1" function="internal">
        <lane id=":J15_1_0" index="0" speed="16.67" length="20.80" shape="-4.80,-189.60 -4.80,-210.40"/>
        <lane id=":J15_1_1" index="1" speed="16.67" length="20.80" shape="-1.60,-189.60 -1.60,-210.40"/>
    </edge>
    <edge id=":J15_3" function="internal">
        <lane id=":J15_3_0" index="0" speed="9.26" length="5.01" shape="-1.60,-189.60 -0.89,-194.56"/>
    </edge>
    <edge id=":J15_16" function="internal">
        <lane id=":J15_16_0" index="0" speed="9.26" length="14.34" shape="-0.89,-194.56 -0.85,-194.85 1.40,-198.60 5.15,-200.85 10.40,-201.60"/>
    </edge>
    <edge id=":J15_4" function="internal">
        <lane id=":J15_4_0" index="0" speed="6.51" length="9.03" shape="10.40,-195.20 7.95,-194.85 6.20,-193.80 5.15,-192.05 4.80,-189.60"/>
    </edge>
    <edge id=":J15_5" function="internal">
        <lane id=":J15_5_0" index="0" speed="16.67" length="20.80" shape="10.40,-195.20 -10.40,-195.20"/>
        <lane id=":J15_5_1" index="1" speed="16.67" length="20.80" shape="10.40,-198.40 -10.40,-198.40"/>
    </edge>
    <edge id=":J15_7" function="internal">
        <lane id=":J15_7_0" index="0" speed="9.26" length="19.35" shape="10.40,-198.40 5.15,-199.15 1.40,-201.40 -0.85,-205.15 -1.60,-210.40"/>
    </edge>
    <edge id=":J15_8" function="internal">
        <lane id=":J15_8_0" index="0" speed="6.51" length="9.03" shape="4.80,-210.40 5.15,-207.95 6.20,-206.20 7.95,-205.15 10.40,-204.80"/>
    </edge>
    <edge id=":J15_9" function="internal">
        <lane id=":J15_9_0" index="0" speed="16.67" length="20.80" shape="4.80,-210.40 4.80,-189.60"/>
        <lane id=":J15_9_1" index="1" speed="16.67" length="20.80" shape="1.60,-210.40 1.60,-189.60"/>
    </edge>
    <edge id=":J15_11" function="internal">
        <lane id=":J15_11_0" index="0" speed="9.26" length="5.01" shape="1.60,-210.40 0.89,-205.44"/>
    </edge>
    <edge id=":J15_17" function="internal">
        <lane id=":J15_17_0" index="0" speed="9.26" length="14.34" shape="0.89,-205.44 0.85,-205.15 -1.40,-201.40 -5.15,-199.15 -10.40,-198.40"/>
    </edge>
    <edge id=":J15_12" function="internal">
        <lane id=":J15_12_0" index="0" speed="6.51" length="9.03" shape="-10.40,-204.80 -7.95,-205.15 -6.20,-206.20 -5.15,-207.95 -4.80,-210.40"/>
    </edge>
    <edge id=":J15_13" function="internal">
        <lane id=":J15_13_0" index="0" speed="16.67" length="20.80" shape="-10.40,-204.80 10.40,-204.80"/>
        <lane id=":J15_13_1" index="1" speed="16.67" length="20.80" shape="-10.40,-201.60 10.40,-201.60"/>
    </edge>
    <edge id=":J15_15" function="internal">
        <lane id=":J15_15_0" index="0" speed="9.26" length="19.35" shape="-10.40,-201.60 -5.15,-200.85 -1.40,-198.60 0.85,-194.85 1.60,-189.60"/>
    </edge>
    <edge id=":J16_0" function="internal">
        <lane id=":J16_0_0" index="0" speed="5.74" length="9.18" shape="-4.80,-585.64 -5.17,-588.34 -6.27,-589.85 -8.11,-590.16 -10.69,-589.29"/>
    </edge>
    <edge id=":J16_1" function="internal">
        <lane id=":J16_1_0" index="0" speed="16.67" length="22.31" shape="-4.80,-585.64 -4.80,-607.96"/>
        <lane id=":J16_1_1" index="1" speed="16.67" length="22.31" shape="-1.60,-585.64 -1.60,-607.96"/>
    </edge>
    <edge id=":J16_3" function="internal">
        <lane id=":J16_3_0" index="0" speed="16.67" length="22.31" shape="4.80,-607.96 4.80,-585.64"/>
        <lane id=":J16_3_1" index="1" speed="16.67" length="22.31" shape="1.60,-607.96 1.60,-585.64"/>
    </edge>
    <edge id=":J16_5" function="internal">
        <lane id=":J16_5_0" index="0" speed="12.14" length="3.70" shape="1.60,-607.96 0.88,-604.33"/>
    </edge>
    <edge id=":J16_8" function="internal">
        <lane id=":J16_8_0" index="0" speed="12.14" length="18.28" shape="0.88,-604.33 0.74,-603.61 -1.83,-599.53 -6.12,-595.71 -12.12,-592.15"/>
    </edge>
    <edge id=":J16_6" function="internal">
        <lane id=":J16_6_0" index="0" speed="10.08" length="14.93" shape="-14.99,-597.87 -10.53,-600.41 -7.35,-602.94 -5.44,-605.45 -4.80,-607.96"/>
    </edge>
    <edge id=":J16_7" function="internal">
        <lane id=":J16_7_0" index="0" speed="8.81" length="23.62" shape="-13.56,-595.01 -6.92,-597.27 -2.19,-596.46 0.65,-592.58 1.60,-585.64"/>
    </edge>
    <edge id=":J17_0" function="internal">
        <lane id=":J17_0_0" index="0" speed="7.39" length="11.94" shape="795.20,-189.60 794.63,-192.05 792.94,-193.80 790.11,-194.85 786.15,-195.20"/>
    </edge>
    <edge id=":J17_1" function="internal">
        <lane id=":J17_1_0" index="0" speed="16.67" length="22.65" shape="795.20,-189.60 794.96,-195.83 794.12,-200.48 792.52,-204.96 789.99,-210.71"/>
        <lane id=":J17_1_1" index="1" speed="16.67" length="22.65" shape="798.40,-189.60 798.11,-196.03 797.18,-201.13 795.48,-206.06 792.91,-212.00"/>
    </edge>
    <edge id=":J17_3" function="internal">
        <lane id=":J17_3_0" index="0" speed="16.67" length="25.29" shape="798.76,-214.60 801.42,-208.25 803.30,-202.43 804.43,-196.44 804.80,-189.60"/>
        <lane id=":J17_3_1" index="1" speed="16.67" length="25.29" shape="795.84,-213.30 798.45,-207.15 800.24,-201.78 801.27,-196.24 801.60,-189.60"/>
    </edge>
    <edge id=":J17_5" function="internal">
        <lane id=":J17_5_0" index="0" speed="8.83" length="5.57" shape="795.84,-213.30 797.38,-207.95"/>
    </edge>
    <edge id=":J17_8" function="internal">
        <lane id=":J17_8_0" index="0" speed="8.83" length="17.53" shape="797.38,-207.95 797.72,-206.78 796.73,-202.13 792.87,-199.33 786.15,-198.40"/>
    </edge>
    <edge id=":J17_6" function="internal">
        <lane id=":J17_6_0" index="0" speed="5.79" length="9.15" shape="786.15,-204.80 788.82,-205.17 790.34,-206.28 790.73,-208.12 789.99,-210.71"/>
    </edge>
    <edge id=":J17_7" function="internal">
        <lane id=":J17_7_0" index="0" speed="9.88" length="22.20" shape="786.15,-201.60 792.91,-200.85 797.74,-198.60 800.63,-194.85 801.60,-189.60"/>
    </edge>
    <edge id=":J18_0" function="internal">
        <lane id=":J18_0_0" index="0" speed="6.51" length="9.03" shape="-4.80,-989.60 -5.15,-992.05 -6.20,-993.80 -7.95,-994.85 -10.40,-995.20"/>
    </edge>
    <edge id=":J18_1" function="internal">
        <lane id=":J18_1_0" index="0" speed="16.67" length="20.80" shape="-4.80,-989.60 -4.80,-1010.40"/>
        <lane id=":J18_1_1" index="1" speed="16.67" length="20.80" shape="-1.60,-989.60 -1.60,-1010.40"/>
    </edge>
    <edge id=":J18_3" function="internal">
        <lane id=":J18_3_0" index="0" speed="16.67" length="20.80" shape="4.80,-1010.40 4.80,-989.60"/>
        <lane id=":J18_3_1" index="1" speed="16.67" length="20.80" shape="1.60,-1010.40 1.60,-989.60"/>
    </edge>
    <edge id=":J18_5" function="internal">
        <lane id=":J18_5_0" index="0" speed="9.26" length="5.01" shape="1.60,-1010.40 0.89,-1005.44"/>
    </edge>
    <edge id=":J18_8" function="internal">
        <lane id=":J18_8_0" index="0" speed="9.26" length="14.34" shape="0.89,-1005.44 0.85,-1005.15 -1.40,-1001.40 -5.15,-999.15 -10.40,-998.40"/>
    </edge>
    <edge id=":J18_6" function="internal">
        <lane id=":J18_6_0" index="0" speed="6.51" length="9.03" shape="-10.40,-1004.80 -7.95,-1005.15 -6.20,-1006.20 -5.15,-1007.95 -4.80,-1010.40"/>
    </edge>
    <edge id=":J18_7" function="internal">
        <lane id=":J18_7_0" index="0" speed="9.26" length="19.35" shape="-10.40,-1001.60 -5.15,-1000.85 -1.40,-998.60 0.85,-994.85 1.60,-989.60"/>
    </edge>
    <edge id=":J19_0" function="internal">
        <lane id=":J19_0_0" index="0" speed="8.79" length="25.88" shape="-4.80,-1965.84 -5.48,-1976.08 -7.52,-1982.22 -10.92,-1984.28 -15.68,-1982.24"/>
    </edge>
    <edge id=":J19_1" function="internal">
        <lane id=":J19_1_0" index="0" speed="12.96" length="38.91" shape="-4.80,-1965.84 -5.95,-1978.69 -9.40,-1987.86 -15.15,-1993.37 -23.20,-1995.20"/>
        <lane id=":J19_1_1" index="1" speed="13.76" length="44.03" shape="-1.60,-1965.84 -2.95,-1980.09 -7.00,-1990.26 -13.75,-1996.37 -23.20,-1998.40"/>
    </edge>
    <edge id=":J19_3" function="internal">
        <lane id=":J19_3_0" index="0" speed="7.59" length="23.78" shape="-1.60,-1965.84 0.50,-1971.70 5.40,-1974.54 11.04,-1973.93 15.34,-1969.44"/>
    </edge>
    <edge id=":J19_4" function="internal">
        <lane id=":J19_4_0" index="0" speed="5.69" length="12.50" shape="9.49,-1966.84 7.44,-1970.73 5.97,-1971.86 5.09,-1970.23 4.80,-1965.84"/>
    </edge>
    <edge id=":J19_5" function="internal">
        <lane id=":J19_5_0" index="0" speed="11.86" length="37.98" shape="9.49,-1966.84 3.01,-1978.72 -3.66,-1985.68 -10.53,-1987.71 -17.60,-1984.80"/>
    </edge>
    <edge id=":J19_6" function="internal">
        <lane id=":J19_6_0" index="0" speed="16.67" length="45.76" shape="9.49,-1966.84 2.72,-1979.25 -4.99,-1988.11 -13.63,-1993.43 -23.20,-1995.20"/>
        <lane id=":J19_6_1" index="1" speed="16.67" length="49.45" shape="12.41,-1968.14 5.14,-1981.38 -3.22,-1990.83 -12.66,-1996.51 -23.20,-1998.40"/>
    </edge>
    <edge id=":J19_8" function="internal">
        <lane id=":J19_8_0" index="0" speed="16.67" length="56.84" shape="-23.20,-2004.80 -10.74,-2002.67 0.32,-1996.28 9.99,-1985.64 18.26,-1970.74"/>
    </edge>
    <edge id=":J19_9" function="internal">
        <lane id=":J19_9_0" index="0" speed="15.25" length="26.55" shape="-23.20,-2004.80 -10.95,-2002.37 -2.20,-1995.06 -1.15,-1992.62"/>
        <lane id=":J19_9_1" index="1" speed="14.52" length="11.57" shape="-23.20,-2001.60 -12.35,-1999.37 -11.97,-1999.04"/>
    </edge>
    <edge id=":J19_11" function="internal">
        <lane id=":J19_11_0" index="0" speed="7.93" length="6.10" shape="-23.20,-2001.60 -17.35,-1999.89"/>
    </edge>
    <edge id=":J19_16" function="internal">
        <lane id=":J19_16_0" index="0" speed="15.25" length="27.73" shape="-1.15,-1992.62 3.05,-1982.89 4.80,-1965.84"/>
    </edge>
    <edge id=":J19_17" function="internal">
        <lane id=":J19_17_0" index="0" speed="14.52" length="37.57" shape="-11.97,-1999.04 -4.60,-1992.66 0.05,-1981.49 1.60,-1965.84"/>
    </edge>
    <edge id=":J19_18" function="internal">
        <lane id=":J19_18_0" index="0" speed="7.93" length="17.68" shape="-17.35,-1999.89 -17.07,-1999.81 -13.76,-1995.41 -13.77,-1989.92 -17.60,-1984.80"/>
    </edge>
    <edge id=":J19_12" function="internal">
        <lane id=":J19_12_0" index="0" speed="5.46" length="10.33" shape="-21.44,-1989.92 -18.91,-1992.23 -18.36,-1993.88 -19.79,-1994.87 -23.20,-1995.20"/>
    </edge>
    <edge id=":J19_13" function="internal">
        <lane id=":J19_13_0" index="0" speed="14.06" length="53.90" shape="-21.44,-1989.92 -8.42,-1996.23 1.99,-1994.20 10.60,-1985.23 18.26,-1970.74"/>
        <lane id=":J19_13_1" index="1" speed="13.24" length="47.67" shape="-19.52,-1987.36 -8.23,-1992.67 0.89,-1990.59 8.52,-1982.40 15.34,-1969.44"/>
    </edge>
    <edge id=":J19_15" function="internal">
        <lane id=":J19_15_0" index="0" speed="10.69" length="39.03" shape="-19.52,-1987.36 -10.57,-1990.59 -3.93,-1986.65 0.18,-1977.68 1.60,-1965.84"/>
    </edge>
    <edge id=":J2_0" function="internal">
        <lane id=":J2_0_0" index="0" speed="16.67" length="20.80" shape="-2204.80,610.40 -2204.80,589.60"/>
        <lane id=":J2_0_1" index="1" speed="16.67" length="20.80" shape="-2201.60,610.40 -2201.60,589.60"/>
    </edge>
    <edge id=":J2_2" function="internal">
        <lane id=":J2_2_0" index="0" speed="9.26" length="5.01" shape="-2201.60,610.40 -2200.89,605.44"/>
    </edge>
    <edge id=":J2_8" function="internal">
        <lane id=":J2_8_0" index="0" speed="9.26" length="14.34" shape="-2200.89,605.44 -2200.85,605.15 -2198.60,601.40 -2194.85,599.15 -2189.60,598.40"/>
    </edge>
    <edge id=":J2_3" function="internal">
        <lane id=":J2_3_0" index="0" speed="6.51" length="9.03" shape="-2189.60,604.80 -2192.05,605.15 -2193.80,606.20 -2194.85,607.95 -2195.20,610.40"/>
    </edge>
    <edge id=":J2_4" function="internal">
        <lane id=":J2_4_0" index="0" speed="9.26" length="19.35" shape="-2189.60,601.60 -2194.85,600.85 -2198.60,598.60 -2200.85,594.85 -2201.60,589.60"/>
    </edge>
    <edge id=":J2_5" function="internal">
        <lane id=":J2_5_0" index="0" speed="6.51" length="9.03" shape="-2195.20,589.60 -2194.85,592.05 -2193.80,593.80 -2192.05,594.85 -2189.60,595.20"/>
    </edge>
    <edge id=":J2_6" function="internal">
        <lane id=":J2_6_0" index="0" speed="16.67" length="20.80" shape="-2195.20,589.60 -2195.20,610.40"/>
        <lane id=":J2_6_1" index="1" speed="16.67" length="20.80" shape="-2198.40,589.60 -2198.40,610.40"/>
    </edge>
    <edge id=":J20_0" function="internal">
        <lane id=":J20_0_0" index="0" speed="6.51" length="9.03" shape="-804.80,-1989.60 -805.15,-1992.05 -806.20,-1993.80 -807.95,-1994.85 -810.40,-1995.20"/>
    </edge>
    <edge id=":J20_1" function="internal">
        <lane id=":J20_1_0" index="0" speed="9.26" length="19.35" shape="-801.60,-1989.60 -800.85,-1994.85 -798.60,-1998.60 -794.85,-2000.85 -789.60,-2001.60"/>
    </edge>
    <edge id=":J20_2" function="internal">
        <lane id=":J20_2_0" index="0" speed="6.51" length="9.03" shape="-789.60,-1995.20 -792.05,-1994.85 -793.80,-1993.80 -794.85,-1992.05 -795.20,-1989.60"/>
    </edge>
    <edge id=":J20_3" function="internal">
        <lane id=":J20_3_0" index="0" speed="16.67" length="20.80" shape="-789.60,-1995.20 -810.40,-1995.20"/>
        <lane id=":J20_3_1" index="1" speed="16.67" length="20.80" shape="-789.60,-1998.40 -810.40,-1998.40"/>
    </edge>
    <edge id=":J20_5" function="internal">
        <lane id=":J20_5_0" index="0" speed="16.67" length="20.80" shape="-810.40,-2004.80 -789.60,-2004.80"/>
        <lane id=":J20_5_1" index="1" speed="16.67" length="20.80" shape="-810.40,-2001.60 -789.60,-2001.60"/>
    </edge>
    <edge id=":J20_7" function="internal">
        <lane id=":J20_7_0" index="0" speed="9.26" length="5.01" shape="-810.40,-2001.60 -805.44,-2000.89"/>
    </edge>
    <edge id=":J20_8" function="internal">
        <lane id=":J20_8_0" index="0" speed="9.26" length="14.34" shape="-805.44,-2000.89 -805.15,-2000.85 -801.40,-1998.60 -799.15,-1994.85 -798.40,-1989.60"/>
    </edge>
    <edge id=":J21_0" function="internal">
        <lane id=":J21_0_0" index="0" speed="6.51" length="9.03" shape="-804.80,-1389.60 -805.15,-1392.05 -806.20,-1393.80 -807.95,-1394.85 -810.40,-1395.20"/>
    </edge>
    <edge id=":J21_1" function="internal">
        <lane id=":J21_1_0" index="0" speed="16.67" length="27.20" shape="-804.80,-1389.60 -804.80,-1416.80"/>
        <lane id=":J21_1_1" index="1" speed="16.67" length="27.20" shape="-801.60,-1389.60 -801.60,-1416.80"/>
    </edge>
    <edge id=":J21_3" function="internal">
        <lane id=":J21_3_0" index="0" speed="15.03" length="4.55" shape="-801.60,-1389.60 -800.89,-1394.09"/>
    </edge>
    <edge id=":J21_16" function="internal">
        <lane id=":J21_16_0" index="0" speed="15.03" length="22.27" shape="-800.89,-1394.09 -800.72,-1395.16 -798.08,-1400.64 -793.68,-1406.04 -787.52,-1411.36"/>
    </edge>
    <edge id=":J21_4" function="internal">
        <lane id=":J21_4_0" index="0" speed="13.31" length="20.90" shape="-783.68,-1406.24 -788.72,-1401.96 -792.32,-1397.76 -794.48,-1393.64 -795.20,-1389.60"/>
    </edge>
    <edge id=":J21_5" function="internal">
        <lane id=":J21_5_0" index="0" speed="16.67" length="28.41" shape="-783.68,-1406.24 -789.82,-1401.98 -796.29,-1398.47 -803.13,-1396.08 -810.40,-1395.20"/>
        <lane id=":J21_5_1" index="1" speed="16.67" length="28.41" shape="-785.60,-1408.80 -791.44,-1404.64 -797.25,-1401.35 -803.43,-1399.18 -810.40,-1398.40"/>
    </edge>
    <edge id=":J21_7" function="internal">
        <lane id=":J21_7_0" index="0" speed="8.83" length="26.12" shape="-785.60,-1408.80 -792.60,-1404.80 -797.60,-1404.80 -800.60,-1408.80 -801.60,-1416.80"/>
    </edge>
    <edge id=":J21_8" function="internal">
        <lane id=":J21_8_0" index="0" speed="5.56" length="9.40" shape="-795.20,-1416.80 -794.84,-1413.92 -793.76,-1412.48 -791.96,-1412.48 -789.44,-1413.92"/>
    </edge>
    <edge id=":J21_9" function="internal">
        <lane id=":J21_9_0" index="0" speed="16.67" length="27.20" shape="-795.20,-1416.80 -795.20,-1389.60"/>
        <lane id=":J21_9_1" index="1" speed="16.67" length="27.20" shape="-798.40,-1416.80 -798.40,-1389.60"/>
    </edge>
    <edge id=":J21_11" function="internal">
        <lane id=":J21_11_0" index="0" speed="10.41" length="7.59" shape="-798.40,-1416.80 -799.10,-1409.25"/>
    </edge>
    <edge id=":J21_17" function="internal">
        <lane id=":J21_17_0" index="0" speed="10.41" length="17.14" shape="-799.10,-1409.25 -799.15,-1408.75 -801.40,-1403.00 -805.15,-1399.55 -810.40,-1398.40"/>
    </edge>
    <edge id=":J21_12" function="internal">
        <lane id=":J21_12_0" index="0" speed="8.10" length="14.57" shape="-810.40,-1404.80 -807.95,-1405.55 -806.20,-1407.80 -805.15,-1411.55 -804.80,-1416.80"/>
    </edge>
    <edge id=":J21_13" function="internal">
        <lane id=":J21_13_0" index="0" speed="16.67" length="24.43" shape="-810.40,-1404.80 -804.03,-1405.38 -799.17,-1407.11 -794.68,-1409.96 -789.44,-1413.92"/>
        <lane id=":J21_13_1" index="1" speed="16.67" length="24.43" shape="-810.40,-1401.60 -803.73,-1402.28 -798.21,-1404.23 -793.06,-1407.30 -787.52,-1411.36"/>
    </edge>
    <edge id=":J21_15" function="internal">
        <lane id=":J21_15_0" index="0" speed="9.26" length="19.35" shape="-810.40,-1401.60 -805.15,-1400.85 -801.40,-1398.60 -799.15,-1394.85 -798.40,-1389.60"/>
    </edge>
    <edge id=":J22_0" function="internal">
        <lane id=":J22_0_0" index="0" speed="16.67" length="20.80" shape="-1604.80,-1389.60 -1604.80,-1410.40"/>
        <lane id=":J22_0_1" index="1" speed="16.67" length="20.80" shape="-1601.60,-1389.60 -1601.60,-1410.40"/>
    </edge>
    <edge id=":J22_2" function="internal">
        <lane id=":J22_2_0" index="0" speed="9.26" length="5.01" shape="-1601.60,-1389.60 -1600.89,-1394.56"/>
    </edge>
    <edge id=":J22_8" function="internal">
        <lane id=":J22_8_0" index="0" speed="9.26" length="14.34" shape="-1600.89,-1394.56 -1600.85,-1394.85 -1598.60,-1398.60 -1594.85,-1400.85 -1589.60,-1401.60"/>
    </edge>
    <edge id=":J22_3" function="internal">
        <lane id=":J22_3_0" index="0" speed="6.51" length="9.03" shape="-1589.60,-1395.20 -1592.05,-1394.85 -1593.80,-1393.80 -1594.85,-1392.05 -1595.20,-1389.60"/>
    </edge>