<routes>
    <vType id="Naive_passenger_vehicles" accel="2.6" decel="4.5" Sigma="0.5" length="5" minGap="2.5" speedFactor="1" color="yellow" vClass="passenger" guiShape="passenger" />
    <vType id="passenger_vehicles_in_a_rush" accel="3.6" decel="5" Sigma="1" length="5" minGap="2" speedFactor="1.1" color="red" vClass="passenger" guiShape="passenger" />
    <vType id="Emergency_vehicles" accel="3.6" decel="5" Sigma="1" length="6.5" minGap="1.5" speedFactor="1.5" color="red" vClass="passenger" guiShape="emergency" />

    <flow id="f0" type="Naive_passenger_vehicles" beg="0" end="3600" number="400" from="E0" to="E29" departPos="random" arrivalPos="random"/> <!-- 1 to 20 -->
    <flow id="f1" type="Naive_passenger_vehicles" beg="0" end="3600" number="300" from="-E21" to="E11" departPos="random" arrivalPos="random"/> <!-- 7 to 12 -->
    <flow id="f2" type="Naive_passenger_vehicles" beg="0" end="3600" number="200" from="E10" to="E1" departPos="random" arrivalPos="random"/> <!-- 10 to 1 -->
    <flow id="f3" type="Naive_passenger_vehicles" beg="0" end="3600" number="200" from="-E11" to="-E5" departPos="random" arrivalPos="random"/> <!-- 12 to 2 -->
    <flow id="f4" type="Naive_passenger_vehicles" beg="0" end="3600" number="200" from="-E13" to="E2" departPos="random" arrivalPos="random"/> <!-- 13 to 4 -->
    <flow id="f5" type="Naive_passenger_vehicles" beg="0" end="3600" number="100" from="E15" to="-E18" departPos="random" arrivalPos="random"/> <!-- 14 to 16 -->
    <flow id="f6" type="Naive_passenger_vehicles" beg="0" end="3600" number="200" from="-E25" to="E26" departPos="random" arrivalPos="random"/> <!-- 20 to 20 -->
    <flow id="f7" type="Naive_passenger_vehicles" beg="0" end="3600" number="300" from="E5" to="E30" departPos="random" arrivalPos="random"/> <!-- 2 to 23 -->
    <flow id="f8" type="Naive_passenger_vehicles" beg="0" end="3600" number="100" from="E9" to="E13" departPos="random" arrivalPos="random"/> <!-- 9 to 13 -->
    <flow id="f9" type="Naive_passenger_vehicles" beg="0" end="3600" number="100" from="E14" to="-E26" departPos="random" arrivalPos="random"/> <!-- 11 to 20 -->
    <flow id="f10" type="Naive_passenger_vehicles" beg="0" end="3600" number="200" from="E32" to="E21" departPos="random" arrivalPos="random"/> <!-- 13 to 7 -->
    <flow id="f11" type="Naive_passenger_vehicles" beg="0" end="3600" number="200" from="E32" to="-E20" departPos="random" arrivalPos="random"/> <!-- 13 to 18 -->
    <flow id="f12" type="Naive_passenger_vehicles" beg="0" end="3600" number="100" from="E20" to="E23" departPos="random" arrivalPos="random"/> <!-- 18 to 15 -->
    <flow id="f13" type="Naive_passenger_vehicles" beg="0" end="3600" number="100" from="E31" to="-E35" departPos="random" arrivalPos="random"/> <!-- 24 to 8 -->
    
    <route id="route0" edges="E1 -E12 -E11 E14 E15"/> <!-- 1 to 15 -->
    <route id="route1" edges="E3 E4 -E7 -E6 -E21"/> <!-- 4 to 18 -->
    <route id="route2" edges="E33 -E26 E25 E21 E6"/> <!-- 24 to 8 -->


    <vehicle id="EV0_0" type="Emergency_vehicles" route="route0" depart="300"/>
    <vehicle id="EV0_4" type="Emergency_vehicles" route="route1" depart="600"/>
    <vehicle id="EV0_1" type="Emergency_vehicles" route="route0" depart="600"/>
    <vehicle id="EV0_2" type="Emergency_vehicles" route="route0" depart="900"/>
    <vehicle id="EV0_6" type="Emergency_vehicles" route="route2" depart="1000"/>
    <vehicle id="EV0_7" type="Emergency_vehicles" route="route2" depart="2000"/>
    <vehicle id="EV0_3" type="Emergency_vehicles" route="route0" depart="2400"/>
    <vehicle id="EV0_8" type="Emergency_vehicles" route="route2" depart="3000"/>
    <vehicle id="EV0_5" type="Emergency_vehicles" route="route1" depart="3000"/>

</routes>
